/*--------------------------------*- C++ -*----------------------------------*\
  =========                 |
  \\      /  F ield         | OpenFOAM: The Open Source CFD Toolbox
   \\    /   O peration     | Website:  https://openfoam.org
    \\  /    A nd           | Version:  9
     \\/     M anipulation  |
\*---------------------------------------------------------------------------*/
FoamFile
{
    format      ascii;
    class       polyBoundaryMesh;
    location    "constant/polyMesh";
    object      boundary;
}
// * * * * * * * * * * * * * * * * * * * * * * * * * * * * * * * * * * * * * //

5
(
    WALL
    {
        type            wall;
        inGroups        List<word> 
2
(
meshedWalls
wall
)
;
        nFaces          15792;
        startFace       201025;
    }
    TOP
    {
        type            symmetry;
        inGroups        List<word> 1(symmetry);
        nFaces          3532;
        startFace       216817;
    }
    BOTTOM
    {
        type            wall;
        inGroups        List<word> 1(wall);
        nFaces          4364;
        startFace       220349;
    }
    STIRRER
    {
        type            wall;
        inGroups        List<word> 1(wall);
        nFaces          1671;
        startFace       224713;
    }
    HOLDER
    {
        type            wall;
        inGroups        List<word> 1(wall);
        nFaces          528;
        startFace       226384;
    }
)

// ************************************************************************* //
