/*--------------------------------*- C++ -*----------------------------------*\
  =========                 |
  \\      /  F ield         | OpenFOAM: The Open Source CFD Toolbox
   \\    /   O peration     | Website:  https://openfoam.org
    \\  /    A nd           | Version:  9
     \\/     M anipulation  |
\*---------------------------------------------------------------------------*/
FoamFile
{
    format      ascii;
    class       featureEdgeMesh;
    location    "constant/triSurface";
    object      HOLDER.eMesh;
}
// * * * * * * * * * * * * * * * * * * * * * * * * * * * * * * * * * * * * * //


// points:

134
(
(-0.00495759 -0.000649844 0.209903)
(-0.00499666 -0.000182753 0.209903)
(-0.00487495 -0.00111122 0.209903)
(-0.00474948 -0.00156284 0.209903)
(-0.00458226 -0.00200072 0.209903)
(-0.00437478 -0.00242102 0.209903)
(-0.00412884 -0.00282004 0.209903)
(-0.00384663 -0.00319428 0.209903)
(-0.00353061 -0.00354045 0.209903)
(-0.00318356 -0.00385551 0.209903)
(-0.00280854 -0.00413668 0.209903)
(-0.00240884 -0.0043815 0.209903)
(-0.00198796 -0.00458781 0.209903)
(-0.00154962 -0.00475381 0.209903)
(-0.00109765 -0.00487803 0.209903)
(-0.000636044 -0.00495938 0.209903)
(-0.000168845 -0.00499715 0.209903)
(0.000299837 -0.004991 0.209903)
(0.000765884 -0.00494099 0.209903)
(0.0012252 -0.00484757 0.209903)
(0.00167375 -0.00471153 0.209903)
(0.00210759 -0.0045341 0.209903)
(0.00252291 -0.00431682 0.209903)
(0.00291606 -0.0040616 0.209903)
(0.00328358 -0.00377069 0.209903)
(0.00362224 -0.00344664 0.209903)
(0.00392908 -0.00309231 0.209903)
(0.00420138 -0.00271079 0.209903)
(0.00443676 -0.00230546 0.209903)
(0.00463315 -0.00187986 0.209903)
(0.00478883 -0.00143775 0.209903)
(0.00490242 -0.000982998 0.209903)
(0.00497293 -0.000519608 0.209903)
(0.00499973 -5.1653e-05 0.209903)
(0.0049826 0.000416756 0.209903)
(0.00492168 0.000881503 0.209903)
(0.00481751 0.0013385 0.209903)
(0.004671 0.00178374 0.209903)
(0.00448345 0.0022133 0.209903)
(0.00425649 0.00262341 0.209903)
(0.00399212 0.00301047 0.209903)
(0.00369268 0.00337107 0.209903)
(0.00336078 0.00370205 0.209903)
(0.00299935 0.00400049 0.209903)
(0.00261156 0.00426377 0.209903)
(0.00220082 0.00448959 0.209903)
(0.00177073 0.00467595 0.209903)
(0.00132509 0.00482122 0.209903)
(0.000867802 0.00492412 0.209903)
(0.000402887 0.00498374 0.209903)
(-6.55678e-05 0.00499957 0.209903)
(-0.000533447 0.00497146 0.209903)
(-0.000996638 0.00489966 0.209903)
(-0.00145107 0.00478481 0.209903)
(-0.00189275 0.0046279 0.209903)
(-0.0023178 0.00443033 0.209903)
(-0.00272248 0.00419382 0.209903)
(-0.00310323 0.00392045 0.209903)
(-0.00345671 0.00361264 0.209903)
(-0.00377982 0.00327307 0.209903)
(-0.0040697 0.00290474 0.209903)
(-0.00432382 0.00251089 0.209903)
(-0.00453995 0.00209496 0.209903)
(-0.00471618 0.00166063 0.209903)
(-0.00485096 0.00121171 0.209903)
(-0.00494311 0.00075213 0.209903)
(-0.00499182 0.000285945 0.209903)
(-0.00495759 -0.000649844 0.099903)
(-0.00487495 -0.00111122 0.099903)
(-0.00499666 -0.000182753 0.099903)
(-0.00499182 0.000285945 0.099903)
(-0.00494311 0.00075213 0.099903)
(-0.00485096 0.00121171 0.099903)
(-0.00471618 0.00166063 0.099903)
(-0.00453995 0.00209496 0.099903)
(-0.00432382 0.00251089 0.099903)
(-0.0040697 0.00290474 0.099903)
(-0.00377982 0.00327307 0.099903)
(-0.00345671 0.00361264 0.099903)
(-0.00310323 0.00392045 0.099903)
(-0.00272248 0.00419382 0.099903)
(-0.0023178 0.00443033 0.099903)
(-0.00189275 0.0046279 0.099903)
(-0.00145107 0.00478481 0.099903)
(-0.000996638 0.00489966 0.099903)
(-0.000533447 0.00497146 0.099903)
(-6.55678e-05 0.00499957 0.099903)
(0.000402887 0.00498374 0.099903)
(0.000867802 0.00492412 0.099903)
(0.00132509 0.00482122 0.099903)
(0.00177073 0.00467595 0.099903)
(0.00220082 0.00448959 0.099903)
(0.00261156 0.00426377 0.099903)
(0.00299935 0.00400049 0.099903)
(0.00336078 0.00370205 0.099903)
(0.00369268 0.00337107 0.099903)
(0.00399212 0.00301047 0.099903)
(0.00425649 0.00262341 0.099903)
(0.00448345 0.0022133 0.099903)
(0.004671 0.00178374 0.099903)
(0.00481751 0.0013385 0.099903)
(0.00492168 0.000881503 0.099903)
(0.0049826 0.000416756 0.099903)
(0.00499973 -5.1653e-05 0.099903)
(0.00497293 -0.000519608 0.099903)
(0.00490242 -0.000982998 0.099903)
(0.00478883 -0.00143775 0.099903)
(0.00463315 -0.00187986 0.099903)
(0.00443676 -0.00230546 0.099903)
(0.00420138 -0.00271079 0.099903)
(0.00392908 -0.00309231 0.099903)
(0.00362224 -0.00344664 0.099903)
(0.00328358 -0.00377069 0.099903)
(0.00291606 -0.0040616 0.099903)
(0.00252291 -0.00431682 0.099903)
(0.00210759 -0.0045341 0.099903)
(0.00167375 -0.00471153 0.099903)
(0.0012252 -0.00484757 0.099903)
(0.000765884 -0.00494099 0.099903)
(0.000299837 -0.004991 0.099903)
(-0.000168845 -0.00499715 0.099903)
(-0.000636044 -0.00495938 0.099903)
(-0.00109765 -0.00487803 0.099903)
(-0.00154962 -0.00475381 0.099903)
(-0.00198796 -0.00458781 0.099903)
(-0.00240884 -0.0043815 0.099903)
(-0.00280854 -0.00413668 0.099903)
(-0.00318356 -0.00385551 0.099903)
(-0.00353061 -0.00354045 0.099903)
(-0.00384663 -0.00319428 0.099903)
(-0.00412884 -0.00282004 0.099903)
(-0.00437478 -0.00242102 0.099903)
(-0.00458226 -0.00200072 0.099903)
(-0.00474948 -0.00156284 0.099903)
)


// edges:

134
(
(0 1)
(2 0)
(3 2)
(4 3)
(5 4)
(6 5)
(7 6)
(8 7)
(9 8)
(10 9)
(11 10)
(12 11)
(13 12)
(14 13)
(15 14)
(16 15)
(17 16)
(18 17)
(19 18)
(20 19)
(21 20)
(22 21)
(23 22)
(24 23)
(25 24)
(26 25)
(27 26)
(28 27)
(29 28)
(30 29)
(31 30)
(32 31)
(33 32)
(34 33)
(35 34)
(36 35)
(37 36)
(38 37)
(39 38)
(40 39)
(41 40)
(42 41)
(43 42)
(44 43)
(45 44)
(46 45)
(47 46)
(48 47)
(49 48)
(50 49)
(51 50)
(52 51)
(53 52)
(54 53)
(55 54)
(56 55)
(57 56)
(58 57)
(59 58)
(60 59)
(61 60)
(62 61)
(63 62)
(64 63)
(65 64)
(66 65)
(1 66)
(67 68)
(69 67)
(70 69)
(71 70)
(72 71)
(73 72)
(74 73)
(75 74)
(76 75)
(77 76)
(78 77)
(79 78)
(80 79)
(81 80)
(82 81)
(83 82)
(84 83)
(85 84)
(86 85)
(87 86)
(88 87)
(89 88)
(90 89)
(91 90)
(92 91)
(93 92)
(94 93)
(95 94)
(96 95)
(97 96)
(98 97)
(99 98)
(100 99)
(101 100)
(102 101)
(103 102)
(104 103)
(105 104)
(106 105)
(107 106)
(108 107)
(109 108)
(110 109)
(111 110)
(112 111)
(113 112)
(114 113)
(115 114)
(116 115)
(117 116)
(118 117)
(119 118)
(120 119)
(121 120)
(122 121)
(123 122)
(124 123)
(125 124)
(126 125)
(127 126)
(128 127)
(129 128)
(130 129)
(131 130)
(132 131)
(133 132)
(68 133)
)

// * * * * * * * * * * * * * * * * * * * * * * * * * * * * * * * * * * * * * //


// ************************************************************************* //
