/*--------------------------------*- C++ -*----------------------------------*\
  =========                 |
  \\      /  F ield         | OpenFOAM: The Open Source CFD Toolbox
   \\    /   O peration     | Website:  https://openfoam.org
    \\  /    A nd           | Version:  9
     \\/     M anipulation  |
\*---------------------------------------------------------------------------*/
FoamFile
{
    format      ascii;
    class       featureEdgeMesh;
    location    "constant/triSurface";
    object      MRF.eMesh;
}
// * * * * * * * * * * * * * * * * * * * * * * * * * * * * * * * * * * * * * //


// points:

284
(
(0.025598 0.0156442 0.104903)
(0.026265 0.0144966 0.104903)
(0.024881 0.0167612 0.104903)
(0.0241152 0.0178454 0.104903)
(0.0233022 0.0188946 0.104903)
(0.0224437 0.0199068 0.104903)
(0.0215412 0.0208801 0.104903)
(0.0205965 0.0218125 0.104903)
(0.0196115 0.0227022 0.104903)
(0.0185881 0.0235475 0.104903)
(0.0175283 0.0243466 0.104903)
(0.0164342 0.0250981 0.104903)
(0.015308 0.0258005 0.104903)
(0.0141517 0.0264524 0.104903)
(0.0129678 0.0270525 0.104903)
(0.0117585 0.0275996 0.104903)
(0.0105262 0.0280927 0.104903)
(0.00927322 0.0285308 0.104903)
(0.00800213 0.0289131 0.104903)
(0.00671537 0.0292387 0.104903)
(0.00541547 0.0295072 0.104903)
(0.00410497 0.0297178 0.104903)
(0.00278644 0.0298703 0.104903)
(0.00146245 0.0299643 0.104903)
(0.000135591 0.0299997 0.104903)
(-0.00119153 0.0299763 0.104903)
(-0.00251632 0.0298943 0.104903)
(-0.00383618 0.0297537 0.104903)
(-0.00514853 0.0295549 0.104903)
(-0.0064508 0.0292982 0.104903)
(-0.00774045 0.0289842 0.104903)
(-0.00901494 0.0286135 0.104903)
(-0.0102718 0.0281867 0.104903)
(-0.0115085 0.0277048 0.104903)
(-0.0127227 0.0271686 0.104903)
(-0.013912 0.0265792 0.104903)
(-0.0150741 0.0259378 0.104903)
(-0.0162067 0.0252457 0.104903)
(-0.0173075 0.0245041 0.104903)
(-0.0183745 0.0237145 0.104903)
(-0.0194055 0.0228785 0.104903)
(-0.0203985 0.0219978 0.104903)
(-0.0213515 0.021074 0.104903)
(-0.0222628 0.0201089 0.104903)
(-0.0231305 0.0191044 0.104903)
(-0.0239529 0.0180626 0.104903)
(-0.0247284 0.0169854 0.104903)
(-0.0254556 0.015875 0.104903)
(-0.0261328 0.0147334 0.104903)
(-0.026759 0.0135631 0.104903)
(-0.0273327 0.0123662 0.104903)
(-0.027853 0.011145 0.104903)
(-0.0283187 0.00990211 0.104903)
(-0.028729 0.00863979 0.104903)
(-0.029083 0.00736055 0.104903)
(-0.0293801 0.00606691 0.104903)
(-0.0296197 0.00476139 0.104903)
(-0.0298014 0.00344655 0.104903)
(-0.0299246 0.00212496 0.104903)
(-0.0299894 0.000799213 0.104903)
(-0.0299954 -0.000528098 0.104903)
(-0.0299426 -0.00185438 0.104903)
(-0.0298313 -0.00317702 0.104903)
(-0.0296616 -0.00449345 0.104903)
(-0.0294338 -0.00580108 0.104903)
(-0.0291484 -0.00709736 0.104903)
(-0.0288059 -0.00837975 0.104903)
(-0.028407 -0.00964572 0.104903)
(-0.0279526 -0.0108928 0.104903)
(-0.0274434 -0.0121186 0.104903)
(-0.0268805 -0.0133206 0.104903)
(-0.026265 -0.0144966 0.104903)
(-0.025598 -0.0156442 0.104903)
(-0.024881 -0.0167612 0.104903)
(-0.0241152 -0.0178454 0.104903)
(-0.0233022 -0.0188946 0.104903)
(-0.0224437 -0.0199068 0.104903)
(-0.0215412 -0.0208801 0.104903)
(-0.0205965 -0.0218125 0.104903)
(-0.0196115 -0.0227022 0.104903)
(-0.0185881 -0.0235475 0.104903)
(-0.0175283 -0.0243466 0.104903)
(-0.0164342 -0.0250981 0.104903)
(-0.015308 -0.0258005 0.104903)
(-0.0141517 -0.0264524 0.104903)
(-0.0129678 -0.0270525 0.104903)
(-0.0117585 -0.0275996 0.104903)
(-0.0105262 -0.0280927 0.104903)
(-0.00927322 -0.0285308 0.104903)
(-0.00800213 -0.0289131 0.104903)
(-0.00671537 -0.0292387 0.104903)
(-0.00541547 -0.0295072 0.104903)
(-0.00410497 -0.0297178 0.104903)
(-0.00278644 -0.0298703 0.104903)
(-0.00146245 -0.0299643 0.104903)
(-0.000135591 -0.0299997 0.104903)
(0.00119153 -0.0299763 0.104903)
(0.00251632 -0.0298943 0.104903)
(0.00383618 -0.0297537 0.104903)
(0.00514853 -0.0295549 0.104903)
(0.0064508 -0.0292982 0.104903)
(0.00774045 -0.0289842 0.104903)
(0.00901494 -0.0286135 0.104903)
(0.0102718 -0.0281867 0.104903)
(0.0115085 -0.0277048 0.104903)
(0.0127227 -0.0271686 0.104903)
(0.013912 -0.0265792 0.104903)
(0.0150741 -0.0259378 0.104903)
(0.0162067 -0.0252457 0.104903)
(0.0173075 -0.0245041 0.104903)
(0.0183745 -0.0237145 0.104903)
(0.0194055 -0.0228785 0.104903)
(0.0203985 -0.0219978 0.104903)
(0.0213515 -0.021074 0.104903)
(0.0222628 -0.0201089 0.104903)
(0.0231305 -0.0191044 0.104903)
(0.0239529 -0.0180626 0.104903)
(0.0247284 -0.0169854 0.104903)
(0.0254556 -0.015875 0.104903)
(0.0261328 -0.0147334 0.104903)
(0.026759 -0.0135631 0.104903)
(0.0273327 -0.0123662 0.104903)
(0.027853 -0.011145 0.104903)
(0.0283187 -0.00990211 0.104903)
(0.028729 -0.00863979 0.104903)
(0.029083 -0.00736055 0.104903)
(0.0293801 -0.00606691 0.104903)
(0.0296197 -0.00476139 0.104903)
(0.0298014 -0.00344655 0.104903)
(0.0299246 -0.00212496 0.104903)
(0.0299894 -0.000799213 0.104903)
(0.0299954 0.000528098 0.104903)
(0.0299426 0.00185438 0.104903)
(0.0298313 0.00317702 0.104903)
(0.0296616 0.00449345 0.104903)
(0.0294338 0.00580108 0.104903)
(0.0291484 0.00709736 0.104903)
(0.0288059 0.00837975 0.104903)
(0.028407 0.00964572 0.104903)
(0.0279526 0.0108928 0.104903)
(0.0274434 0.0121186 0.104903)
(0.0268805 0.0133206 0.104903)
(0.025598 0.0156442 -0.015097)
(0.024881 0.0167612 -0.015097)
(0.026265 0.0144966 -0.015097)
(0.0268805 0.0133206 -0.015097)
(0.0274434 0.0121186 -0.015097)
(0.0279526 0.0108928 -0.015097)
(0.028407 0.00964572 -0.015097)
(0.0288059 0.00837975 -0.015097)
(0.0291484 0.00709736 -0.015097)
(0.0294338 0.00580108 -0.015097)
(0.0296616 0.00449345 -0.015097)
(0.0298313 0.00317702 -0.015097)
(0.0299426 0.00185438 -0.015097)
(0.0299954 0.000528098 -0.015097)
(0.0299894 -0.000799213 -0.015097)
(0.0299246 -0.00212496 -0.015097)
(0.0298014 -0.00344655 -0.015097)
(0.0296197 -0.00476139 -0.015097)
(0.0293801 -0.00606691 -0.015097)
(0.029083 -0.00736055 -0.015097)
(0.028729 -0.00863979 -0.015097)
(0.0283187 -0.00990211 -0.015097)
(0.027853 -0.011145 -0.015097)
(0.0273327 -0.0123662 -0.015097)
(0.026759 -0.0135631 -0.015097)
(0.0261328 -0.0147334 -0.015097)
(0.0254556 -0.015875 -0.015097)
(0.0247284 -0.0169854 -0.015097)
(0.0239529 -0.0180626 -0.015097)
(0.0231305 -0.0191044 -0.015097)
(0.0222628 -0.0201089 -0.015097)
(0.0213515 -0.021074 -0.015097)
(0.0203985 -0.0219978 -0.015097)
(0.0194055 -0.0228785 -0.015097)
(0.0183745 -0.0237145 -0.015097)
(0.0173075 -0.0245041 -0.015097)
(0.0162067 -0.0252457 -0.015097)
(0.0150741 -0.0259378 -0.015097)
(0.013912 -0.0265792 -0.015097)
(0.0127227 -0.0271686 -0.015097)
(0.0115085 -0.0277048 -0.015097)
(0.0102718 -0.0281867 -0.015097)
(0.00901494 -0.0286135 -0.015097)
(0.00774045 -0.0289842 -0.015097)
(0.0064508 -0.0292982 -0.015097)
(0.00514853 -0.0295549 -0.015097)
(0.00383618 -0.0297537 -0.015097)
(0.00251632 -0.0298943 -0.015097)
(0.00119153 -0.0299763 -0.015097)
(-0.000135591 -0.0299997 -0.015097)
(-0.00146245 -0.0299643 -0.015097)
(-0.00278644 -0.0298703 -0.015097)
(-0.00410497 -0.0297178 -0.015097)
(-0.00541547 -0.0295072 -0.015097)
(-0.00671537 -0.0292387 -0.015097)
(-0.00800213 -0.0289131 -0.015097)
(-0.00927322 -0.0285308 -0.015097)
(-0.0105262 -0.0280927 -0.015097)
(-0.0117585 -0.0275996 -0.015097)
(-0.0129678 -0.0270525 -0.015097)
(-0.0141517 -0.0264524 -0.015097)
(-0.015308 -0.0258005 -0.015097)
(-0.0164342 -0.0250981 -0.015097)
(-0.0175283 -0.0243466 -0.015097)
(-0.0185881 -0.0235475 -0.015097)
(-0.0196115 -0.0227022 -0.015097)
(-0.0205965 -0.0218125 -0.015097)
(-0.0215412 -0.0208801 -0.015097)
(-0.0224437 -0.0199068 -0.015097)
(-0.0233022 -0.0188946 -0.015097)
(-0.0241152 -0.0178454 -0.015097)
(-0.024881 -0.0167612 -0.015097)
(-0.025598 -0.0156442 -0.015097)
(-0.026265 -0.0144966 -0.015097)
(-0.0268805 -0.0133206 -0.015097)
(-0.0274434 -0.0121186 -0.015097)
(-0.0279526 -0.0108928 -0.015097)
(-0.028407 -0.00964572 -0.015097)
(-0.0288059 -0.00837975 -0.015097)
(-0.0291484 -0.00709736 -0.015097)
(-0.0294338 -0.00580108 -0.015097)
(-0.0296616 -0.00449345 -0.015097)
(-0.0298313 -0.00317702 -0.015097)
(-0.0299426 -0.00185438 -0.015097)
(-0.0299954 -0.000528098 -0.015097)
(-0.0299894 0.000799213 -0.015097)
(-0.0299246 0.00212496 -0.015097)
(-0.0298014 0.00344655 -0.015097)
(-0.0296197 0.00476139 -0.015097)
(-0.0293801 0.00606691 -0.015097)
(-0.029083 0.00736055 -0.015097)
(-0.028729 0.00863979 -0.015097)
(-0.0283187 0.00990211 -0.015097)
(-0.027853 0.011145 -0.015097)
(-0.0273327 0.0123662 -0.015097)
(-0.026759 0.0135631 -0.015097)
(-0.0261328 0.0147334 -0.015097)
(-0.0254556 0.015875 -0.015097)
(-0.0247284 0.0169854 -0.015097)
(-0.0239529 0.0180626 -0.015097)
(-0.0231305 0.0191044 -0.015097)
(-0.0222628 0.0201089 -0.015097)
(-0.0213515 0.021074 -0.015097)
(-0.0203985 0.0219978 -0.015097)
(-0.0194055 0.0228785 -0.015097)
(-0.0183745 0.0237145 -0.015097)
(-0.0173075 0.0245041 -0.015097)
(-0.0162067 0.0252457 -0.015097)
(-0.0150741 0.0259378 -0.015097)
(-0.013912 0.0265792 -0.015097)
(-0.0127227 0.0271686 -0.015097)
(-0.0115085 0.0277048 -0.015097)
(-0.0102718 0.0281867 -0.015097)
(-0.00901494 0.0286135 -0.015097)
(-0.00774045 0.0289842 -0.015097)
(-0.0064508 0.0292982 -0.015097)
(-0.00514853 0.0295549 -0.015097)
(-0.00383618 0.0297537 -0.015097)
(-0.00251632 0.0298943 -0.015097)
(-0.00119153 0.0299763 -0.015097)
(0.000135591 0.0299997 -0.015097)
(0.00146245 0.0299643 -0.015097)
(0.00278644 0.0298703 -0.015097)
(0.00410497 0.0297178 -0.015097)
(0.00541547 0.0295072 -0.015097)
(0.00671537 0.0292387 -0.015097)
(0.00800213 0.0289131 -0.015097)
(0.00927322 0.0285308 -0.015097)
(0.0105262 0.0280927 -0.015097)
(0.0117585 0.0275996 -0.015097)
(0.0129678 0.0270525 -0.015097)
(0.0141517 0.0264524 -0.015097)
(0.015308 0.0258005 -0.015097)
(0.0164342 0.0250981 -0.015097)
(0.0175283 0.0243466 -0.015097)
(0.0185881 0.0235475 -0.015097)
(0.0196115 0.0227022 -0.015097)
(0.0205965 0.0218125 -0.015097)
(0.0215412 0.0208801 -0.015097)
(0.0224437 0.0199068 -0.015097)
(0.0233022 0.0188946 -0.015097)
(0.0241152 0.0178454 -0.015097)
)


// edges:

284
(
(0 1)
(2 0)
(3 2)
(4 3)
(5 4)
(6 5)
(7 6)
(8 7)
(9 8)
(10 9)
(11 10)
(12 11)
(13 12)
(14 13)
(15 14)
(16 15)
(17 16)
(18 17)
(19 18)
(20 19)
(21 20)
(22 21)
(23 22)
(24 23)
(25 24)
(26 25)
(27 26)
(28 27)
(29 28)
(30 29)
(31 30)
(32 31)
(33 32)
(34 33)
(35 34)
(36 35)
(37 36)
(38 37)
(39 38)
(40 39)
(41 40)
(42 41)
(43 42)
(44 43)
(45 44)
(46 45)
(47 46)
(48 47)
(49 48)
(50 49)
(51 50)
(52 51)
(53 52)
(54 53)
(55 54)
(56 55)
(57 56)
(58 57)
(59 58)
(60 59)
(61 60)
(62 61)
(63 62)
(64 63)
(65 64)
(66 65)
(67 66)
(68 67)
(69 68)
(70 69)
(71 70)
(72 71)
(73 72)
(74 73)
(75 74)
(76 75)
(77 76)
(78 77)
(79 78)
(80 79)
(81 80)
(82 81)
(83 82)
(84 83)
(85 84)
(86 85)
(87 86)
(88 87)
(89 88)
(90 89)
(91 90)
(92 91)
(93 92)
(94 93)
(95 94)
(96 95)
(97 96)
(98 97)
(99 98)
(100 99)
(101 100)
(102 101)
(103 102)
(104 103)
(105 104)
(106 105)
(107 106)
(108 107)
(109 108)
(110 109)
(111 110)
(112 111)
(113 112)
(114 113)
(115 114)
(116 115)
(117 116)
(118 117)
(119 118)
(120 119)
(121 120)
(122 121)
(123 122)
(124 123)
(125 124)
(126 125)
(127 126)
(128 127)
(129 128)
(130 129)
(131 130)
(132 131)
(133 132)
(134 133)
(135 134)
(136 135)
(137 136)
(138 137)
(139 138)
(140 139)
(141 140)
(1 141)
(142 143)
(144 142)
(145 144)
(146 145)
(147 146)
(148 147)
(149 148)
(150 149)
(151 150)
(152 151)
(153 152)
(154 153)
(155 154)
(156 155)
(157 156)
(158 157)
(159 158)
(160 159)
(161 160)
(162 161)
(163 162)
(164 163)
(165 164)
(166 165)
(167 166)
(168 167)
(169 168)
(170 169)
(171 170)
(172 171)
(173 172)
(174 173)
(175 174)
(176 175)
(177 176)
(178 177)
(179 178)
(180 179)
(181 180)
(182 181)
(183 182)
(184 183)
(185 184)
(186 185)
(187 186)
(188 187)
(189 188)
(190 189)
(191 190)
(192 191)
(193 192)
(194 193)
(195 194)
(196 195)
(197 196)
(198 197)
(199 198)
(200 199)
(201 200)
(202 201)
(203 202)
(204 203)
(205 204)
(206 205)
(207 206)
(208 207)
(209 208)
(210 209)
(211 210)
(212 211)
(213 212)
(214 213)
(215 214)
(216 215)
(217 216)
(218 217)
(219 218)
(220 219)
(221 220)
(222 221)
(223 222)
(224 223)
(225 224)
(226 225)
(227 226)
(228 227)
(229 228)
(230 229)
(231 230)
(232 231)
(233 232)
(234 233)
(235 234)
(236 235)
(237 236)
(238 237)
(239 238)
(240 239)
(241 240)
(242 241)
(243 242)
(244 243)
(245 244)
(246 245)
(247 246)
(248 247)
(249 248)
(250 249)
(251 250)
(252 251)
(253 252)
(254 253)
(255 254)
(256 255)
(257 256)
(258 257)
(259 258)
(260 259)
(261 260)
(262 261)
(263 262)
(264 263)
(265 264)
(266 265)
(267 266)
(268 267)
(269 268)
(270 269)
(271 270)
(272 271)
(273 272)
(274 273)
(275 274)
(276 275)
(277 276)
(278 277)
(279 278)
(280 279)
(281 280)
(282 281)
(283 282)
(143 283)
)

// * * * * * * * * * * * * * * * * * * * * * * * * * * * * * * * * * * * * * //


// ************************************************************************* //
