/*--------------------------------*- C++ -*----------------------------------*\
  =========                 |
  \\      /  F ield         | OpenFOAM: The Open Source CFD Toolbox
   \\    /   O peration     | Website:  https://openfoam.org
    \\  /    A nd           | Version:  9
     \\/     M anipulation  |
\*---------------------------------------------------------------------------*/
FoamFile
{
    format      ascii;
    class       extendedFeatureEdgeMesh;
    location    "constant/extendedFeatureEdgeMesh";
    object      TOP.extendedFeatureEdgeMesh;
}
// * * * * * * * * * * * * * * * * * * * * * * * * * * * * * * * * * * * * * //

// points

374
(
(-0.0458856 0.0761428 0.214903)
(-0.0433018 0.0776413 0.214903)
(-0.0458856 0.0761428 0.209903)
(-0.0484176 0.0745583 0.209903)
(-0.0484176 0.0745583 0.214903)
(-0.0508949 0.0728898 0.209903)
(-0.0508949 0.0728898 0.214903)
(-0.0533148 0.0711389 0.209903)
(-0.0533148 0.0711389 0.214903)
(-0.0556746 0.0693077 0.209903)
(-0.0556746 0.0693077 0.214903)
(-0.0579714 0.0673983 0.209903)
(-0.0579714 0.0673983 0.214903)
(-0.0602028 0.0654127 0.209903)
(-0.0602028 0.0654127 0.214903)
(-0.0623663 0.0633534 0.209903)
(-0.0623663 0.0633534 0.214903)
(-0.0644594 0.0612225 0.209903)
(-0.0644594 0.0612225 0.214903)
(-0.0664797 0.0590225 0.209903)
(-0.0664797 0.0590225 0.214903)
(-0.0684249 0.0567559 0.209903)
(-0.0684249 0.0567559 0.214903)
(-0.070293 0.0544253 0.209903)
(-0.070293 0.0544253 0.214903)
(-0.0720816 0.0520331 0.209903)
(-0.0720816 0.0520331 0.214903)
(-0.0737889 0.0495823 0.209903)
(-0.0737889 0.0495823 0.214903)
(-0.0754129 0.0470755 0.209903)
(-0.0754129 0.0470755 0.214903)
(-0.0769518 0.0445155 0.209903)
(-0.0769518 0.0445155 0.214903)
(-0.0784038 0.0419053 0.209903)
(-0.0784038 0.0419053 0.214903)
(-0.0797673 0.0392478 0.209903)
(-0.0797673 0.0392478 0.214903)
(-0.0810407 0.036546 0.209903)
(-0.0810407 0.036546 0.214903)
(-0.0822227 0.0338029 0.209903)
(-0.0822227 0.0338029 0.214903)
(-0.0833119 0.0310216 0.209903)
(-0.0833119 0.0310216 0.214903)
(-0.084307 0.0282054 0.209903)
(-0.084307 0.0282054 0.214903)
(-0.0852069 0.0253573 0.209903)
(-0.0852069 0.0253573 0.214903)
(-0.0860107 0.0224806 0.209903)
(-0.0860107 0.0224806 0.214903)
(-0.0867173 0.0195785 0.209903)
(-0.0867173 0.0195785 0.214903)
(-0.0873261 0.0166543 0.209903)
(-0.0873261 0.0166543 0.214903)
(-0.0878363 0.0137113 0.209903)
(-0.0878363 0.0137113 0.214903)
(-0.0882473 0.0107528 0.209903)
(-0.0882473 0.0107528 0.214903)
(-0.0885587 0.0077822 0.209903)
(-0.0885587 0.0077822 0.214903)
(-0.0887702 0.0048028 0.209903)
(-0.0887702 0.0048028 0.214903)
(-0.0888814 0.00181798 0.209903)
(-0.0888814 0.00181798 0.214903)
(-0.0888923 -0.0011689 0.209903)
(-0.0888923 -0.0011689 0.214903)
(-0.0888029 -0.00415445 0.209903)
(-0.0888029 -0.00415445 0.214903)
(-0.0886132 -0.00713531 0.209903)
(-0.0886132 -0.00713531 0.214903)
(-0.0883235 -0.0101081 0.209903)
(-0.0883235 -0.0101081 0.214903)
(-0.087934 -0.0130695 0.209903)
(-0.087934 -0.0130695 0.214903)
(-0.0874454 -0.0160162 0.209903)
(-0.0874454 -0.0160162 0.214903)
(-0.086858 -0.0189447 0.209903)
(-0.086858 -0.0189447 0.214903)
(-0.0861725 -0.0218519 0.209903)
(-0.0861725 -0.0218519 0.214903)
(-0.0853898 -0.0247344 0.209903)
(-0.0853898 -0.0247344 0.214903)
(-0.0845107 -0.027589 0.209903)
(-0.0845107 -0.027589 0.214903)
(-0.0835362 -0.0304125 0.209903)
(-0.0835362 -0.0304125 0.214903)
(-0.0824674 -0.0332016 0.209903)
(-0.0824674 -0.0332016 0.214903)
(-0.0813055 -0.0359532 0.209903)
(-0.0813055 -0.0359532 0.214903)
(-0.0800518 -0.0386643 0.209903)
(-0.0800518 -0.0386643 0.214903)
(-0.0787077 -0.0413317 0.209903)
(-0.0787077 -0.0413317 0.214903)
(-0.0772748 -0.0439524 0.209903)
(-0.0772748 -0.0439524 0.214903)
(-0.0757547 -0.0465235 0.209903)
(-0.0757547 -0.0465235 0.214903)
(-0.074149 -0.0490422 0.209903)
(-0.074149 -0.0490422 0.214903)
(-0.0724597 -0.0515054 0.209903)
(-0.0724597 -0.0515054 0.214903)
(-0.0706885 -0.0539105 0.209903)
(-0.0706885 -0.0539105 0.214903)
(-0.0688376 -0.0562548 0.209903)
(-0.0688376 -0.0562548 0.214903)
(-0.0669089 -0.0585355 0.209903)
(-0.0669089 -0.0585355 0.214903)
(-0.0649047 -0.0607502 0.209903)
(-0.0649047 -0.0607502 0.214903)
(-0.0628273 -0.0628963 0.209903)
(-0.0628273 -0.0628963 0.214903)
(-0.0606789 -0.0649714 0.209903)
(-0.0606789 -0.0649714 0.214903)
(-0.058462 -0.0669731 0.209903)
(-0.058462 -0.0669731 0.214903)
(-0.0561792 -0.0688993 0.209903)
(-0.0561792 -0.0688993 0.214903)
(-0.0538329 -0.0707477 0.209903)
(-0.0538329 -0.0707477 0.214903)
(-0.0514258 -0.0725162 0.209903)
(-0.0514258 -0.0725162 0.214903)
(-0.0489607 -0.0742028 0.209903)
(-0.0489607 -0.0742028 0.214903)
(-0.0464404 -0.0758057 0.209903)
(-0.0464404 -0.0758057 0.214903)
(-0.0438676 -0.077323 0.209903)
(-0.0438676 -0.077323 0.214903)
(-0.0412452 -0.078753 0.209903)
(-0.0412452 -0.078753 0.214903)
(-0.0385764 -0.0800942 0.209903)
(-0.0385764 -0.0800942 0.214903)
(-0.0358639 -0.0813449 0.209903)
(-0.0358639 -0.0813449 0.214903)
(-0.033111 -0.0825038 0.209903)
(-0.033111 -0.0825038 0.214903)
(-0.0303207 -0.0835695 0.209903)
(-0.0303207 -0.0835695 0.214903)
(-0.0274962 -0.0845409 0.209903)
(-0.0274962 -0.0845409 0.214903)
(-0.0246407 -0.0854169 0.209903)
(-0.0246407 -0.0854169 0.214903)
(-0.0217573 -0.0861965 0.209903)
(-0.0217573 -0.0861965 0.214903)
(-0.0188494 -0.0868787 0.209903)
(-0.0188494 -0.0868787 0.214903)
(-0.0159202 -0.0874629 0.209903)
(-0.0159202 -0.0874629 0.214903)
(-0.012973 -0.0879484 0.209903)
(-0.012973 -0.0879484 0.214903)
(-0.0100112 -0.0883345 0.209903)
(-0.0100112 -0.0883345 0.214903)
(-0.00703804 -0.088621 0.209903)
(-0.00703804 -0.088621 0.214903)
(-0.00405697 -0.0888074 0.209903)
(-0.00405697 -0.0888074 0.214903)
(-0.00107132 -0.0888935 0.209903)
(-0.00107132 -0.0888935 0.214903)
(0.00191554 -0.0888794 0.209903)
(0.00191554 -0.0888794 0.214903)
(0.00490024 -0.0887648 0.209903)
(0.00490024 -0.0887648 0.214903)
(0.0078794 -0.0885501 0.209903)
(0.0078794 -0.0885501 0.214903)
(0.0108497 -0.0882355 0.209903)
(0.0108497 -0.0882355 0.214903)
(0.0138077 -0.0878212 0.209903)
(0.0138077 -0.0878212 0.214903)
(0.0167501 -0.0873078 0.209903)
(0.0167501 -0.0873078 0.214903)
(0.0196737 -0.0866958 0.209903)
(0.0196737 -0.0866958 0.214903)
(0.022575 -0.0859859 0.209903)
(0.022575 -0.0859859 0.214903)
(0.0254508 -0.085179 0.209903)
(0.0254508 -0.085179 0.214903)
(0.0282979 -0.084276 0.209903)
(0.0282979 -0.084276 0.214903)
(0.0311131 -0.0832778 0.209903)
(0.0311131 -0.0832778 0.214903)
(0.0338931 -0.0821856 0.209903)
(0.0338931 -0.0821856 0.214903)
(0.0366349 -0.0810006 0.209903)
(0.0366349 -0.0810006 0.214903)
(0.0393353 -0.0797242 0.209903)
(0.0393353 -0.0797242 0.214903)
(0.0419913 -0.0783577 0.209903)
(0.0419913 -0.0783577 0.214903)
(0.0446 -0.0769029 0.209903)
(0.0446 -0.0769029 0.214903)
(0.0471582 -0.0753612 0.209903)
(0.0471582 -0.0753612 0.214903)
(0.0496633 -0.0737345 0.209903)
(0.0496633 -0.0737345 0.214903)
(0.0521122 -0.0720245 0.209903)
(0.0521122 -0.0720245 0.214903)
(0.0545024 -0.0702332 0.209903)
(0.0545024 -0.0702332 0.214903)
(0.056831 -0.0683626 0.209903)
(0.056831 -0.0683626 0.214903)
(0.0590955 -0.0664149 0.209903)
(0.0590955 -0.0664149 0.214903)
(0.0612932 -0.0643921 0.209903)
(0.0612932 -0.0643921 0.214903)
(0.0634218 -0.0622967 0.209903)
(0.0634218 -0.0622967 0.214903)
(0.0654788 -0.060131 0.209903)
(0.0654788 -0.060131 0.214903)
(0.0674618 -0.0578974 0.209903)
(0.0674618 -0.0578974 0.214903)
(0.0693687 -0.0555984 0.209903)
(0.0693687 -0.0555984 0.214903)
(0.0711974 -0.0532367 0.209903)
(0.0711974 -0.0532367 0.214903)
(0.0729456 -0.0508149 0.209903)
(0.0729456 -0.0508149 0.214903)
(0.0746115 -0.0483357 0.209903)
(0.0746115 -0.0483357 0.214903)
(0.0761931 -0.045802 0.209903)
(0.0761931 -0.045802 0.214903)
(0.0776888 -0.0432165 0.209903)
(0.0776888 -0.0432165 0.214903)
(0.0790967 -0.0405823 0.209903)
(0.0790967 -0.0405823 0.214903)
(0.0804154 -0.0379022 0.209903)
(0.0804154 -0.0379022 0.214903)
(0.0816433 -0.0351794 0.209903)
(0.0816433 -0.0351794 0.214903)
(0.082779 -0.0324168 0.209903)
(0.082779 -0.0324168 0.214903)
(0.0838213 -0.0296177 0.209903)
(0.0838213 -0.0296177 0.214903)
(0.0847689 -0.0267851 0.209903)
(0.0847689 -0.0267851 0.214903)
(0.0856209 -0.0239223 0.209903)
(0.0856209 -0.0239223 0.214903)
(0.0863762 -0.0210325 0.209903)
(0.0863762 -0.0210325 0.214903)
(0.087034 -0.0181189 0.209903)
(0.087034 -0.0181189 0.214903)
(0.0875935 -0.0151849 0.209903)
(0.0875935 -0.0151849 0.214903)
(0.0880542 -0.0122338 0.209903)
(0.0880542 -0.0122338 0.214903)
(0.0884155 -0.00926881 0.209903)
(0.0884155 -0.00926881 0.214903)
(0.088677 -0.00629338 0.209903)
(0.088677 -0.00629338 0.214903)
(0.0888383 -0.00331085 0.209903)
(0.0888383 -0.00331085 0.214903)
(0.0888994 -0.000324586 0.209903)
(0.0888994 -0.000324586 0.214903)
(0.0888601 0.00266205 0.209903)
(0.0888601 0.00266205 0.214903)
(0.0887206 0.00564568 0.209903)
(0.0887206 0.00564568 0.214903)
(0.0884808 0.00862293 0.209903)
(0.0884808 0.00862293 0.214903)
(0.0881412 0.0115905 0.209903)
(0.0881412 0.0115905 0.214903)
(0.0877021 0.0145449 0.209903)
(0.0877021 0.0145449 0.214903)
(0.087164 0.0174829 0.209903)
(0.087164 0.0174829 0.214903)
(0.0865275 0.0204012 0.209903)
(0.0865275 0.0204012 0.214903)
(0.0857933 0.0232964 0.209903)
(0.0857933 0.0232964 0.214903)
(0.0849622 0.0261654 0.209903)
(0.0849622 0.0261654 0.214903)
(0.0840353 0.0290048 0.209903)
(0.0840353 0.0290048 0.214903)
(0.0830135 0.0318115 0.209903)
(0.0830135 0.0318115 0.214903)
(0.081898 0.0345823 0.209903)
(0.081898 0.0345823 0.214903)
(0.08069 0.037314 0.209903)
(0.08069 0.037314 0.214903)
(0.0793909 0.0400036 0.209903)
(0.0793909 0.0400036 0.214903)
(0.0780023 0.0426481 0.209903)
(0.0780023 0.0426481 0.214903)
(0.0765255 0.0452444 0.209903)
(0.0765255 0.0452444 0.214903)
(0.0749624 0.0477896 0.209903)
(0.0749624 0.0477896 0.214903)
(0.0733147 0.0502809 0.209903)
(0.0733147 0.0502809 0.214903)
(0.0715842 0.0527154 0.209903)
(0.0715842 0.0527154 0.214903)
(0.0697729 0.0550904 0.209903)
(0.0697729 0.0550904 0.214903)
(0.0678828 0.0574032 0.209903)
(0.0678828 0.0574032 0.214903)
(0.0659161 0.0596513 0.209903)
(0.0659161 0.0596513 0.214903)
(0.063875 0.061832 0.209903)
(0.063875 0.061832 0.214903)
(0.0617618 0.0639429 0.209903)
(0.0617618 0.0639429 0.214903)
(0.0595789 0.0659816 0.209903)
(0.0595789 0.0659816 0.214903)
(0.0573287 0.0679458 0.209903)
(0.0573287 0.0679458 0.214903)
(0.0550138 0.0698333 0.209903)
(0.0550138 0.0698333 0.214903)
(0.0526368 0.071642 0.209903)
(0.0526368 0.071642 0.214903)
(0.0502004 0.0733698 0.209903)
(0.0502004 0.0733698 0.214903)
(0.0477073 0.0750148 0.209903)
(0.0477073 0.0750148 0.214903)
(0.0451603 0.0765752 0.209903)
(0.0451603 0.0765752 0.214903)
(0.0425624 0.078049 0.209903)
(0.0425624 0.078049 0.214903)
(0.0399164 0.0794348 0.209903)
(0.0399164 0.0794348 0.214903)
(0.0372254 0.0807309 0.209903)
(0.0372254 0.0807309 0.214903)
(0.0344924 0.0819359 0.209903)
(0.0344924 0.0819359 0.214903)
(0.0317204 0.0830484 0.209903)
(0.0317204 0.0830484 0.214903)
(0.0289126 0.0840671 0.209903)
(0.0289126 0.0840671 0.214903)
(0.0260721 0.0849909 0.209903)
(0.0260721 0.0849909 0.214903)
(0.0232023 0.0858188 0.209903)
(0.0232023 0.0858188 0.214903)
(0.0203062 0.0865498 0.209903)
(0.0203062 0.0865498 0.214903)
(0.0173872 0.0871831 0.209903)
(0.0173872 0.0871831 0.214903)
(0.0144486 0.087718 0.209903)
(0.0144486 0.087718 0.214903)
(0.0114937 0.0881539 0.209903)
(0.0114937 0.0881539 0.214903)
(0.0085258 0.0884902 0.209903)
(0.0085258 0.0884902 0.214903)
(0.00554829 0.0887267 0.209903)
(0.00554829 0.0887267 0.214903)
(0.0025645 0.088863 0.209903)
(0.0025645 0.088863 0.214903)
(-0.00042217 0.088899 0.209903)
(-0.00042217 0.088899 0.214903)
(-0.00340837 0.0888346 0.209903)
(-0.00340837 0.0888346 0.214903)
(-0.00639072 0.08867 0.209903)
(-0.00639072 0.08867 0.214903)
(-0.00936586 0.0884053 0.209903)
(-0.00936586 0.0884053 0.214903)
(-0.0123304 0.0880407 0.209903)
(-0.0123304 0.0880407 0.214903)
(-0.0152811 0.0875768 0.209903)
(-0.0152811 0.0875768 0.214903)
(-0.0182145 0.087014 0.209903)
(-0.0182145 0.087014 0.214903)
(-0.0211273 0.086353 0.209903)
(-0.0211273 0.086353 0.214903)
(-0.0240163 0.0855946 0.209903)
(-0.0240163 0.0855946 0.214903)
(-0.0268782 0.0847394 0.209903)
(-0.0268782 0.0847394 0.214903)
(-0.0297097 0.0837887 0.209903)
(-0.0297097 0.0837887 0.214903)
(-0.0325077 0.0827433 0.209903)
(-0.0325077 0.0827433 0.214903)
(-0.035269 0.0816046 0.209903)
(-0.035269 0.0816046 0.214903)
(-0.0379905 0.0803737 0.209903)
(-0.0379905 0.0803737 0.214903)
(-0.0406691 0.0790521 0.209903)
(-0.0406691 0.0790521 0.214903)
(-0.0433018 0.0776413 0.209903)
)

// edges

374
(
(0 1)
(2 3)
(4 0)
(3 5)
(6 4)
(5 7)
(8 6)
(7 9)
(10 8)
(9 11)
(12 10)
(11 13)
(14 12)
(13 15)
(16 14)
(15 17)
(18 16)
(17 19)
(20 18)
(19 21)
(22 20)
(21 23)
(24 22)
(23 25)
(26 24)
(25 27)
(28 26)
(27 29)
(30 28)
(29 31)
(32 30)
(31 33)
(34 32)
(33 35)
(36 34)
(35 37)
(38 36)
(37 39)
(40 38)
(39 41)
(42 40)
(41 43)
(44 42)
(43 45)
(46 44)
(45 47)
(48 46)
(47 49)
(50 48)
(49 51)
(52 50)
(51 53)
(54 52)
(53 55)
(56 54)
(55 57)
(58 56)
(57 59)
(60 58)
(59 61)
(62 60)
(61 63)
(64 62)
(63 65)
(66 64)
(65 67)
(68 66)
(67 69)
(70 68)
(69 71)
(72 70)
(71 73)
(74 72)
(73 75)
(76 74)
(75 77)
(78 76)
(77 79)
(80 78)
(79 81)
(82 80)
(81 83)
(84 82)
(83 85)
(86 84)
(85 87)
(88 86)
(87 89)
(90 88)
(89 91)
(92 90)
(91 93)
(94 92)
(93 95)
(96 94)
(95 97)
(98 96)
(97 99)
(100 98)
(99 101)
(102 100)
(101 103)
(104 102)
(103 105)
(106 104)
(105 107)
(108 106)
(107 109)
(110 108)
(109 111)
(112 110)
(111 113)
(114 112)
(113 115)
(116 114)
(115 117)
(118 116)
(117 119)
(120 118)
(119 121)
(122 120)
(121 123)
(124 122)
(123 125)
(126 124)
(125 127)
(128 126)
(127 129)
(130 128)
(129 131)
(132 130)
(131 133)
(134 132)
(133 135)
(136 134)
(135 137)
(138 136)
(137 139)
(140 138)
(139 141)
(142 140)
(141 143)
(144 142)
(143 145)
(146 144)
(145 147)
(148 146)
(147 149)
(150 148)
(149 151)
(152 150)
(151 153)
(154 152)
(153 155)
(156 154)
(155 157)
(158 156)
(157 159)
(160 158)
(159 161)
(162 160)
(161 163)
(164 162)
(163 165)
(166 164)
(165 167)
(168 166)
(167 169)
(170 168)
(169 171)
(172 170)
(171 173)
(174 172)
(173 175)
(176 174)
(175 177)
(178 176)
(177 179)
(180 178)
(179 181)
(182 180)
(181 183)
(184 182)
(183 185)
(186 184)
(185 187)
(188 186)
(187 189)
(190 188)
(189 191)
(192 190)
(191 193)
(194 192)
(193 195)
(196 194)
(195 197)
(198 196)
(197 199)
(200 198)
(199 201)
(202 200)
(201 203)
(204 202)
(203 205)
(206 204)
(205 207)
(208 206)
(207 209)
(210 208)
(209 211)
(212 210)
(211 213)
(214 212)
(213 215)
(216 214)
(215 217)
(218 216)
(217 219)
(220 218)
(219 221)
(222 220)
(221 223)
(224 222)
(223 225)
(226 224)
(225 227)
(228 226)
(227 229)
(230 228)
(229 231)
(232 230)
(231 233)
(234 232)
(233 235)
(236 234)
(235 237)
(238 236)
(237 239)
(240 238)
(239 241)
(242 240)
(241 243)
(244 242)
(243 245)
(246 244)
(245 247)
(248 246)
(247 249)
(250 248)
(249 251)
(252 250)
(251 253)
(254 252)
(253 255)
(256 254)
(255 257)
(258 256)
(257 259)
(260 258)
(259 261)
(262 260)
(261 263)
(264 262)
(263 265)
(266 264)
(265 267)
(268 266)
(267 269)
(270 268)
(269 271)
(272 270)
(271 273)
(274 272)
(273 275)
(276 274)
(275 277)
(278 276)
(277 279)
(280 278)
(279 281)
(282 280)
(281 283)
(284 282)
(283 285)
(286 284)
(285 287)
(288 286)
(287 289)
(290 288)
(289 291)
(292 290)
(291 293)
(294 292)
(293 295)
(296 294)
(295 297)
(298 296)
(297 299)
(300 298)
(299 301)
(302 300)
(301 303)
(304 302)
(303 305)
(306 304)
(305 307)
(308 306)
(307 309)
(310 308)
(309 311)
(312 310)
(311 313)
(314 312)
(313 315)
(316 314)
(315 317)
(318 316)
(317 319)
(320 318)
(319 321)
(322 320)
(321 323)
(324 322)
(323 325)
(326 324)
(325 327)
(328 326)
(327 329)
(330 328)
(329 331)
(332 330)
(331 333)
(334 332)
(333 335)
(336 334)
(335 337)
(338 336)
(337 339)
(340 338)
(339 341)
(342 340)
(341 343)
(344 342)
(343 345)
(346 344)
(345 347)
(348 346)
(347 349)
(350 348)
(349 351)
(352 350)
(351 353)
(354 352)
(353 355)
(356 354)
(355 357)
(358 356)
(357 359)
(360 358)
(359 361)
(362 360)
(361 363)
(364 362)
(363 365)
(366 364)
(365 367)
(368 366)
(367 369)
(370 368)
(369 371)
(372 370)
(371 373)
(1 372)
(373 2)
)

// concaveStart mixedStart nonFeatureStart
0 0 0
// internalStart flatStart openStart multipleStart
374 374 374 374
// normals

744
(
(-0.501688 0.865048 0)
(-0 0 1)
(-0.530465 0.847707 0)
(0 -0 -1)
(-0.530465 0.847707 0)
(-0.558641 0.82941 0)
(0 -0 -1)
(-0.558641 0.82941 0)
(0 0 1)
(-0.586187 0.810176 0)
(0 -0 -1)
(-0.586187 0.810176 0)
(0 0 1)
(-0.613076 0.790024 0)
(0 -0 -1)
(-0.613076 0.790024 0)
(0 0 1)
(-0.639269 0.768983 0)
(0 -0 -1)
(-0.639269 0.768983 0)
(0 0 1)
(-0.664743 0.747072 0)
(0 -0 -1)
(-0.664743 0.747072 0)
(0 0 1)
(-0.689461 0.724322 0)
(0 -0 -1)
(-0.689461 0.724322 0)
(0 0 1)
(-0.713406 0.700751 0)
(0 -0 -1)
(-0.713406 0.700751 0)
(0 0 1)
(-0.736545 0.676388 0)
(0 -0 -1)
(-0.736545 0.676388 0)
(0 0 1)
(-0.758851 0.651264 0)
(0 -0 -1)
(-0.758851 0.651264 0)
(0 0 1)
(-0.780299 0.625407 0)
(0 -0 -1)
(-0.780299 0.625407 0)
(0 0 1)
(-0.80087 0.598838 0)
(0 -0 -1)
(-0.80087 0.598838 0)
(0 0 1)
(-0.820534 0.571597 0)
(0 -0 -1)
(-0.820534 0.571597 0)
(0 0 1)
(-0.839274 0.543708 0)
(0 -0 -1)
(-0.839274 0.543708 0)
(0 0 1)
(-0.857066 0.515207 0)
(0 -0 -1)
(-0.857066 0.515207 0)
(0 0 1)
(-0.87389 0.486124 0)
(0 -0 -1)
(-0.87389 0.486124 0)
(0 0 1)
(-0.889726 0.456495 0)
(0 -0 -1)
(-0.889726 0.456495 0)
(0 0 1)
(-0.904561 0.426345 0)
(0 -0 -1)
(-0.904561 0.426345 0)
(0 0 1)
(-0.918371 0.39572 0)
(0 -0 -1)
(-0.918371 0.39572 0)
(0 0 1)
(-0.931148 0.364642 0)
(0 -0 -1)
(-0.931148 0.364642 0)
(0 0 1)
(-0.942872 0.333156 0)
(0 -0 -1)
(-0.942872 0.333156 0)
(0 0 1)
(-0.95353 0.301297 0)
(0 -0 -1)
(-0.95353 0.301297 0)
(0 0 1)
(-0.963115 0.269091 0)
(0 -0 -1)
(-0.963115 0.269091 0)
(0 0 1)
(-0.97161 0.236588 0)
(0 -0 -1)
(-0.97161 0.236588 0)
(0 0 1)
(-0.979011 0.203809 0)
(0 -0 -1)
(-0.979011 0.203809 0)
(0 0 1)
(-0.985304 0.170811 0)
(0 -0 -1)
(-0.985304 0.170811 0)
(0 0 1)
(-0.990486 0.137613 0)
(0 -0 -1)
(-0.990486 0.137613 0)
(0 0 1)
(-0.99455 0.104259 0)
(0 -0 -1)
(-0.99455 0.104259 0)
(0 0 1)
(-0.997491 0.0707943 0)
(0 -0 -1)
(-0.997491 0.0707943 0)
(0 0 1)
(-0.999306 0.0372418 0)
(0 -0 -1)
(-0.999306 0.0372418 0)
(0 0 1)
(-0.999993 0.00365184 0)
(0 -0 -1)
(-0.999993 0.00365184 0)
(0 0 1)
(-0.999551 -0.0299481 -0)
(0 0 -1)
(-0.999551 -0.0299481 0)
(0 0 1)
(-0.997982 -0.0635031 -0)
(0 0 -1)
(-0.997982 -0.0635031 0)
(0 0 1)
(-0.995285 -0.0969983 -0)
(0 0 -1)
(-0.995285 -0.0969983 0)
(0 0 1)
(-0.991465 -0.130376 -0)
(0 0 -1)
(-0.991465 -0.130376 0)
(0 0 1)
(-0.986526 -0.163607 -0)
(0 0 -1)
(-0.986526 -0.163607 0)
(0 0 1)
(-0.980472 -0.19666 -0)
(0 0 -1)
(-0.980472 -0.19666 0)
(0 0 1)
(-0.973313 -0.229482 -0)
(0 0 -1)
(-0.973313 -0.229482 0)
(0 0 1)
(-0.965053 -0.262054 -0)
(0 0 -1)
(-0.965053 -0.262054 0)
(0 0 1)
(-0.955706 -0.294322 -0)
(0 0 -1)
(-0.955706 -0.294322 0)
(0 0 1)
(-0.945278 -0.326265 -0)
(0 0 -1)
(-0.945278 -0.326265 0)
(0 0 1)
(-0.933785 -0.357833 -0)
(0 0 -1)
(-0.933785 -0.357833 0)
(0 0 1)
(-0.921237 -0.389003 -0)
(0 0 -1)
(-0.921237 -0.389003 0)
(0 0 1)
(-0.90765 -0.419727 -0)
(0 0 -1)
(-0.90765 -0.419727 0)
(0 0 1)
(-0.893035 -0.449987 -0)
(0 0 -1)
(-0.893035 -0.449987 0)
(0 0 1)
(-0.877416 -0.47973 -0)
(0 0 -1)
(-0.877416 -0.47973 0)
(0 0 1)
(-0.860805 -0.508935 -0)
(0 0 -1)
(-0.860805 -0.508935 0)
(0 0 1)
(-0.843221 -0.537567 -0)
(0 0 -1)
(-0.843221 -0.537567 0)
(0 0 1)
(-0.824687 -0.565589 -0)
(0 0 -1)
(-0.824687 -0.565589 0)
(0 0 1)
(-0.805222 -0.592973 -0)
(0 0 -1)
(-0.805222 -0.592973 0)
(0 0 1)
(-0.784847 -0.61969 -0)
(0 0 -1)
(-0.784847 -0.61969 0)
(0 0 1)
(-0.763587 -0.645705 -0)
(0 0 -1)
(-0.763587 -0.645705 0)
(0 0 1)
(-0.741462 -0.670995 -0)
(0 0 -1)
(-0.741462 -0.670995 0)
(0 0 1)
(-0.718505 -0.695522 -0)
(0 0 -1)
(-0.718505 -0.695522 0)
(0 0 1)
(-0.694735 -0.719266 -0)
(0 0 -1)
(-0.694735 -0.719266 0)
(0 0 1)
(-0.670178 -0.742201 -0)
(0 0 -1)
(-0.670178 -0.742201 0)
(0 0 1)
(-0.644868 -0.764294 -0)
(0 0 -1)
(-0.644868 -0.764294 0)
(0 0 1)
(-0.618828 -0.785527 -0)
(0 0 -1)
(-0.618828 -0.785527 0)
(0 0 1)
(-0.592089 -0.805873 -0)
(0 0 -1)
(-0.592089 -0.805873 0)
(0 0 1)
(-0.564686 -0.825306 -0)
(0 0 -1)
(-0.564686 -0.825306 0)
(0 0 1)
(-0.536641 -0.843811 -0)
(0 0 -1)
(-0.536641 -0.843811 0)
(0 0 1)
(-0.507989 -0.861363 -0)
(0 0 -1)
(-0.507989 -0.861363 0)
(0 0 1)
(-0.478766 -0.877943 -0)
(0 0 -1)
(-0.478766 -0.877943 0)
(0 0 1)
(-0.449004 -0.89353 -0)
(0 0 -1)
(-0.449004 -0.89353 0)
(0 0 1)
(-0.418735 -0.908109 -0)
(0 0 -1)
(-0.418735 -0.908109 0)
(0 0 1)
(-0.38799 -0.921663 -0)
(0 0 -1)
(-0.38799 -0.921663 0)
(0 0 1)
(-0.35681 -0.934177 -0)
(0 0 -1)
(-0.35681 -0.934177 0)
(0 0 1)
(-0.325224 -0.945637 -0)
(0 0 -1)
(-0.325224 -0.945637 0)
(0 0 1)
(-0.293274 -0.956028 -0)
(0 0 -1)
(-0.293274 -0.956028 0)
(0 0 1)
(-0.260994 -0.96534 -0)
(0 0 -1)
(-0.260994 -0.96534 0)
(0 0 1)
(-0.228415 -0.973564 -0)
(0 0 -1)
(-0.228415 -0.973564 0)
(0 0 1)
(-0.195586 -0.980687 -0)
(0 0 -1)
(-0.195586 -0.980687 0)
(0 0 1)
(-0.162527 -0.986704 -0)
(0 0 -1)
(-0.162527 -0.986704 0)
(0 0 1)
(-0.129288 -0.991607 -0)
(0 0 -1)
(-0.129288 -0.991607 0)
(0 0 1)
(-0.0959008 -0.995391 -0)
(0 0 -1)
(-0.0959008 -0.995391 0)
(0 0 1)
(-0.0624105 -0.998051 -0)
(0 0 -1)
(-0.0624105 -0.998051 0)
(0 0 1)
(-0.0288455 -0.999584 -0)
(0 0 -1)
(-0.0288455 -0.999584 0)
(0 0 1)
(0.00474689 -0.999989 0)
(0 0 -1)
(0.00474689 -0.999989 0)
(0 0 1)
(0.0383418 -0.999265 0)
(0 0 -1)
(0.0383418 -0.999265 0)
(0 0 1)
(0.0718844 -0.997413 0)
(0 0 -1)
(0.0718844 -0.997413 0)
(0 0 1)
(0.105352 -0.994435 0)
(0 0 -1)
(0.105352 -0.994435 0)
(0 0 1)
(0.1387 -0.990334 0)
(0 0 -1)
(0.1387 -0.990334 0)
(0 0 1)
(0.171891 -0.985116 0)
(0 0 -1)
(0.171891 -0.985116 0)
(0 0 1)
(0.204889 -0.978785 0)
(0 0 -1)
(0.204889 -0.978785 0)
(0 0 1)
(0.237651 -0.971351 0)
(0 0 -1)
(0.237651 -0.971351 0)
(0 0 1)
(0.270149 -0.962818 0)
(0 0 -1)
(0.270149 -0.962818 0)
(0 0 1)
(0.302341 -0.9532 0)
(0 0 -1)
(0.302341 -0.9532 0)
(0 0 1)
(0.334191 -0.942505 0)
(0 0 -1)
(0.334191 -0.942505 0)
(0 0 1)
(0.365668 -0.930746 0)
(0 0 -1)
(0.365668 -0.930746 0)
(0 0 1)
(0.396727 -0.917937 0)
(0 0 -1)
(0.396727 -0.917937 0)
(0 0 1)
(0.427337 -0.904093 0)
(0 0 -1)
(0.427337 -0.904093 0)
(0 0 1)
(0.457472 -0.889224 0)
(0 0 -1)
(0.457472 -0.889224 0)
(0 0 1)
(0.487082 -0.873356 0)
(0 0 -1)
(0.487082 -0.873356 0)
(0 0 1)
(0.516149 -0.856499 0)
(0 0 -1)
(0.516149 -0.856499 0)
(0.544629 -0.838677 0)
(0.544629 -0.838677 0)
(0 0 1)
(0.572497 -0.819907 0)
(0 0 -1)
(0.572497 -0.819907 0)
(0 0 1)
(0.599717 -0.800212 0)
(0 0 -1)
(0.599717 -0.800212 0)
(0 0 1)
(0.626261 -0.779613 0)
(0 0 -1)
(0.626261 -0.779613 0)
(0 0 1)
(0.652097 -0.758135 0)
(0 0 -1)
(0.652097 -0.758135 0)
(0 0 1)
(0.677197 -0.735802 0)
(0 0 -1)
(0.677197 -0.735802 0)
(0 0 1)
(0.701534 -0.712636 0)
(0 0 -1)
(0.701534 -0.712636 0)
(0 0 1)
(0.725077 -0.688668 0)
(0 0 -1)
(0.725077 -0.688668 0)
(0 0 1)
(0.747803 -0.663921 0)
(0 0 -1)
(0.747803 -0.663921 0)
(0 0 1)
(0.769685 -0.638424 0)
(0 0 -1)
(0.769685 -0.638424 0)
(0 0 1)
(0.790696 -0.612209 0)
(0 0 -1)
(0.790696 -0.612209 0)
(0 0 1)
(0.810819 -0.585297 0)
(0 0 -1)
(0.810819 -0.585297 0)
(0 0 1)
(0.83002 -0.557734 0)
(0 0 -1)
(0.83002 -0.557734 0)
(0 0 1)
(0.848291 -0.52953 0)
(0 0 -1)
(0.848291 -0.52953 0)
(0 0 1)
(0.865598 -0.500739 0)
(0 0 -1)
(0.865598 -0.500739 0)
(0 0 1)
(0.881932 -0.471376 0)
(0 0 -1)
(0.881932 -0.471376 0)
(0 0 1)
(0.89727 -0.441481 0)
(0 0 -1)
(0.89727 -0.441481 0)
(0 0 1)
(0.911595 -0.41109 0)
(0 0 -1)
(0.911595 -0.41109 0)
(0 0 1)
(0.92489 -0.380234 0)
(0 0 -1)
(0.92489 -0.380234 0)
(0 0 1)
(0.93714 -0.348953 0)
(0 0 -1)
(0.93714 -0.348953 0)
(0 0 1)
(0.948336 -0.317268 0)
(0 0 -1)
(0.948336 -0.317268 0)
(0 0 1)
(0.958457 -0.285237 0)
(0 0 -1)
(0.958457 -0.285237 0)
(0 0 1)
(0.967499 -0.252875 0)
(0 0 -1)
(0.967499 -0.252875 0)
(0 0 1)
(0.975448 -0.220228 0)
(0 0 -1)
(0.975448 -0.220228 0)
(0 0 1)
(0.982295 -0.187339 0)
(0 0 -1)
(0.982295 -0.187339 0)
(0 0 1)
(0.988035 -0.154233 0)
(0 0 -1)
(0.988035 -0.154233 0)
(0 0 1)
(0.992658 -0.120952 0)
(0 0 -1)
(0.992658 -0.120952 0)
(0 0 1)
(0.996161 -0.0875394 0)
(0 0 -1)
(0.996161 -0.0875394 0)
(0 0 1)
(0.998539 -0.0540268 0)
(0 0 -1)
(0.998539 -0.0540268 0)
(0 0 1)
(0.999791 -0.0204493 0)
(0 0 -1)
(0.999791 -0.0204493 0)
(0 0 1)
(0.999914 0.0131506 0)
(0 0 -1)
(0.999914 0.0131506 0)
(0 0 1)
(0.998908 0.0467306 0)
(0 0 -1)
(0.998908 0.0467306 0)
(0 0 1)
(0.996774 0.0802606 0)
(0 0 -1)
(0.996774 0.0802606 0)
(0 0 1)
(0.993515 0.113703 0)
(0 0 -1)
(0.993515 0.113703 0)
(0 0 1)
(0.989134 0.147014 0)
(0 0 -1)
(0.989134 0.147014 0)
(0 0 1)
(0.983637 0.18016 0)
(0 0 -1)
(0.983637 0.18016 0)
(0 0 1)
(0.97703 0.213101 0)
(0 0 -1)
(0.97703 0.213101 0)
(0 0 1)
(0.96932 0.245804 0)
(0 0 -1)
(0.96932 0.245804 0)
(0 0 1)
(0.960516 0.278225 0)
(0 0 -1)
(0.960516 0.278225 0)
(0 0 1)
(0.950626 0.310339 0)
(0 0 -1)
(0.950626 0.310339 0)
(0 0 1)
(0.939664 0.342099 0)
(0 0 -1)
(0.939664 0.342099 0)
(0 0 1)
(0.927641 0.373473 0)
(0 0 -1)
(0.927641 0.373473 0)
(0 0 1)
(0.914573 0.404421 0)
(0 0 -1)
(0.914573 0.404421 0)
(0 0 1)
(0.90047 0.434919 0)
(0 0 -1)
(0.90047 0.434919 0)
(0 0 1)
(0.885351 0.464923 0)
(0 0 -1)
(0.885351 0.464923 0)
(0 0 1)
(0.869233 0.494402 0)
(0 0 -1)
(0.869233 0.494402 0)
(0 0 1)
(0.852133 0.523325 0)
(0 0 -1)
(0.852133 0.523325 0)
(0 0 1)
(0.834072 0.551655 0)
(0 0 -1)
(0.834072 0.551655 0)
(0 0 1)
(0.815069 0.579364 0)
(0 0 -1)
(0.815069 0.579364 0)
(0 0 1)
(0.795147 0.606417 0)
(0 0 -1)
(0.795147 0.606417 0)
(0 0 1)
(0.774326 0.632787 0)
(0 0 -1)
(0.774326 0.632787 0)
(0 0 1)
(0.752632 0.658441 0)
(0 0 -1)
(0.752632 0.658441 0)
(0 0 1)
(0.730086 0.683355 0)
(0 0 -1)
(0.730086 0.683355 0)
(0 0 1)
(0.70672 0.707493 0)
(0 0 -1)
(0.70672 0.707493 0)
(0 0 1)
(0.682552 0.730837 0)
(0 0 -1)
(0.682552 0.730837 0)
(0 0 1)
(0.657615 0.753354 0)
(0 0 -1)
(0.657615 0.753354 0)
(0 0 1)
(0.631938 0.775019 0)
(0 0 -1)
(0.631938 0.775019 0)
(0 0 1)
(0.605545 0.795811 0)
(0 0 -1)
(0.605545 0.795811 0)
(0 0 1)
(0.578468 0.815705 0)
(0 0 -1)
(0.578468 0.815705 0)
(0 0 1)
(0.550738 0.834678 0)
(0 0 -1)
(0.550738 0.834678 0)
(0 0 1)
(0.522391 0.852706 0)
(0 0 -1)
(0.522391 0.852706 0)
(0 0 1)
(0.493445 0.869777 0)
(0 0 -1)
(0.493445 0.869777 0)
(0 0 1)
(0.463955 0.885859 0)
(0 0 -1)
(0.463955 0.885859 0)
(0 0 1)
(0.433928 0.900947 0)
(0 0 -1)
(0.433928 0.900947 0)
(0 0 1)
(0.403421 0.915014 0)
(0 0 -1)
(0.403421 0.915014 0)
(0 0 1)
(0.37245 0.928052 0)
(0 0 -1)
(0.37245 0.928052 0)
(0 0 1)
(0.341065 0.94004 0)
(0 0 -1)
(0.341065 0.94004 0)
(0 0 1)
(0.309297 0.950966 0)
(0 0 -1)
(0.309297 0.950966 0)
(0 0 1)
(0.27717 0.960821 0)
(0 0 -1)
(0.27717 0.960821 0)
(0 0 1)
(0.24474 0.969589 0)
(0 0 -1)
(0.24474 0.969589 0)
(0 0 1)
(0.212029 0.977263 0)
(0 0 -1)
(0.212029 0.977263 0)
(0 0 1)
(0.17908 0.983834 0)
(0 0 -1)
(0.17908 0.983834 0)
(0 0 1)
(0.145926 0.989295 0)
(0 0 -1)
(0.145926 0.989295 0)
(0 0 1)
(0.112613 0.993639 0)
(0 0 -1)
(0.112613 0.993639 0)
(0 0 1)
(0.0791681 0.996861 0)
(0 0 -1)
(0.0791681 0.996861 0)
(0 0 1)
(0.045633 0.998958 0)
(0 0 -1)
(0.045633 0.998958 0)
(0 0 1)
(0.0120531 0.999927 0)
(0 0 -1)
(0.0120531 0.999927 0)
(0 0 1)
(-0.0215468 0.999768 0)
(0 0 -1)
(-0.0215468 0.999768 0)
(-0 0 1)
(-0.0551218 0.99848 0)
(0 0 -1)
(-0.0551218 0.99848 0)
(-0 0 1)
(-0.0886344 0.996064 0)
(0 0 -1)
(-0.0886344 0.996064 0)
(-0 0 1)
(-0.122042 0.992525 0)
(0 0 -1)
(-0.122042 0.992525 0)
(-0 0 1)
(-0.155315 0.987865 0)
(0 0 -1)
(-0.155315 0.987865 0)
(-0 0 1)
(-0.188417 0.982089 0)
(0 0 -1)
(-0.188417 0.982089 0)
(-0 0 1)
(-0.2213 0.975206 0)
(0 0 -1)
(-0.2213 0.975206 0)
(-0 0 1)
(-0.253938 0.967221 0)
(0 0 -1)
(-0.253938 0.967221 0)
(-0 0 1)
(-0.286287 0.958144 0)
(0 0 -1)
(-0.286287 0.958144 0)
(-0 0 1)
(-0.318309 0.947987 0)
(0 0 -1)
(-0.318309 0.947987 0)
(-0 0 1)
(-0.349981 0.936757 0)
(0 0 -1)
(-0.349981 0.936757 0)
(-0 0 1)
(-0.381248 0.924473 0)
(0 0 -1)
(-0.381248 0.924473 0)
(-0 0 1)
(-0.412091 0.911143 0)
(0 0 -1)
(-0.412091 0.911143 0)
(-0 0 1)
(-0.442466 0.896785 0)
(0 0 -1)
(-0.442466 0.896785 0)
(-0 0 1)
(-0.472344 0.881414 0)
(0 0 -1)
(-0.472344 0.881414 0)
(-0 0 1)
(-0.501688 0.865048 0)
)

// normal volume types

744
(
0
0
0
0
0
0
0
0
0
0
0
0
0
0
0
0
0
0
0
0
0
0
0
0
0
0
0
0
0
0
0
0
0
0
0
0
0
0
0
0
0
0
0
0
0
0
0
0
0
0
0
0
0
0
0
0
0
0
0
0
0
0
0
0
0
0
0
0
0
0
0
0
0
0
0
0
0
0
0
0
0
0
0
0
0
0
0
0
0
0
0
0
0
0
0
0
0
0
0
0
0
0
0
0
0
0
0
0
0
0
0
0
0
0
0
0
0
0
0
0
0
0
0
0
0
0
0
0
0
0
0
0
0
0
0
0
0
0
0
0
0
0
0
0
0
0
0
0
0
0
0
0
0
0
0
0
0
0
0
0
0
0
0
0
0
0
0
0
0
0
0
0
0
0
0
0
0
0
0
0
0
0
0
0
0
0
0
0
0
0
0
0
0
0
0
0
0
0
0
0
0
0
0
0
0
0
0
0
0
0
0
0
0
0
0
0
0
0
0
0
0
0
0
0
0
0
0
0
0
0
0
0
0
0
0
0
0
0
0
0
0
0
0
0
0
0
0
0
0
0
0
0
0
0
0
0
0
0
0
0
0
0
0
0
0
0
0
0
0
0
0
0
0
0
0
0
0
0
0
0
0
0
0
0
0
0
0
0
0
0
0
0
0
0
0
0
0
0
0
0
0
0
0
0
0
0
0
0
0
0
0
0
0
0
0
0
0
0
0
0
0
0
0
0
0
0
0
0
0
0
0
0
0
0
0
0
0
0
0
0
0
0
0
0
0
0
0
0
0
0
0
0
0
0
0
0
0
0
0
0
0
0
0
0
0
0
0
0
0
0
0
0
0
0
0
0
0
0
0
0
0
0
0
0
0
0
0
0
0
0
0
0
0
0
0
0
0
0
0
0
0
0
0
0
0
0
0
0
0
0
0
0
0
0
0
0
0
0
0
0
0
0
0
0
0
0
0
0
0
0
0
0
0
0
0
0
0
0
0
0
0
0
0
0
0
0
0
0
0
0
0
0
0
0
0
0
0
0
0
0
0
0
0
0
0
0
0
0
0
0
0
0
0
0
0
0
0
0
0
0
0
0
0
0
0
0
0
0
0
0
0
0
0
0
0
0
0
0
0
0
0
0
0
0
0
0
0
0
0
0
0
0
0
0
0
0
0
0
0
0
0
0
0
0
0
0
0
0
0
0
0
0
0
0
0
0
0
0
0
0
0
0
0
0
0
0
0
0
0
0
0
0
0
0
0
0
0
0
0
0
0
0
0
0
0
0
0
0
0
0
0
0
0
0
0
0
0
0
0
0
0
0
0
0
0
0
0
0
0
0
0
0
0
0
0
0
0
0
0
0
0
0
0
0
0
0
0
0
0
0
0
0
0
0
0
0
0
0
0
0
0
0
0
0
0
0
0
0
0
0
0
0
0
0
0
0
0
0
0
0
0
0
0
0
0
0
0
0
0
0
0
0
0
0
0
0
0
0
0
0
0
0
0
0
0
0
0
0
0
0
0
0
0
0
0
0
0
0
0
0
0
0
0
0
0
0
0
0
0
0
0
0
0
0
0
0
0
0
0
0
0
0
0
0
0
0
0
0
0
0
0
0
0
0
0
0
0
0
0
0
0
0
0
0
0
0
0
0
0
0
0
0
0
0
0
0
0
0
0
0
0
0
0
0
)

// normalDirections

374
(
2(1 -1)
2(1 -1)
2(1 -1)
2(1 -1)
2(1 -1)
2(1 -1)
2(1 -1)
2(1 -1)
2(1 -1)
2(1 -1)
2(1 -1)
2(1 -1)
2(1 -1)
2(1 -1)
2(1 -1)
2(1 -1)
2(1 -1)
2(1 -1)
2(1 -1)
2(1 -1)
2(1 -1)
2(1 -1)
2(1 -1)
2(1 -1)
2(1 -1)
2(1 -1)
2(1 -1)
2(1 -1)
2(1 -1)
2(1 -1)
2(1 -1)
2(1 -1)
2(1 -1)
2(1 -1)
2(1 -1)
2(1 -1)
2(1 -1)
2(1 -1)
2(1 -1)
2(1 -1)
2(1 -1)
2(1 -1)
2(1 -1)
2(1 -1)
2(1 -1)
2(1 -1)