/*--------------------------------*- C++ -*----------------------------------*\
  =========                 |
  \\      /  F ield         | OpenFOAM: The Open Source CFD Toolbox
   \\    /   O peration     | Website:  https://openfoam.org
    \\  /    A nd           | Version:  9
     \\/     M anipulation  |
\*---------------------------------------------------------------------------*/
FoamFile
{
    format      ascii;
    class       extendedFeatureEdgeMesh;
    location    "constant/extendedFeatureEdgeMesh";
    object      WALL.extendedFeatureEdgeMesh;
}
// * * * * * * * * * * * * * * * * * * * * * * * * * * * * * * * * * * * * * //

// points

646
(
(-0.0433048 0.0718603 0.209903)
(-0.04611 0.0700934 0.209903)
(-0.0404321 0.073515 0.209903)
(-0.0374962 0.075055 0.209903)
(-0.0345017 0.0764777 0.209903)
(-0.0314534 0.0777811 0.209903)
(-0.028356 0.078963 0.209903)
(-0.0252143 0.0800216 0.209903)
(-0.0220332 0.0809552 0.209903)
(-0.0188178 0.0817625 0.209903)
(-0.0155729 0.0824421 0.209903)
(-0.0123038 0.0829929 0.209903)
(-0.00901539 0.0834142 0.209903)
(-0.00571293 0.0837053 0.209903)
(-0.00240156 0.0838656 0.209903)
(0.000913557 0.083895 0.209903)
(0.00422725 0.0837934 0.209903)
(0.00753435 0.083561 0.209903)
(0.0108297 0.0831981 0.209903)
(0.0141081 0.0827053 0.209903)
(0.0173645 0.0820834 0.209903)
(0.0205938 0.0813333 0.209903)
(0.0237909 0.0804562 0.209903)
(0.0269509 0.0794535 0.209903)
(0.0300688 0.0783267 0.209903)
(0.0331397 0.0770777 0.209903)
(0.0361589 0.0757083 0.209903)
(0.0391217 0.0742206 0.209903)
(0.0420233 0.0726171 0.209903)
(0.0448594 0.0709002 0.209903)
(0.0476254 0.0690727 0.209903)
(0.050317 0.0671372 0.209903)
(0.0529301 0.0650969 0.209903)
(0.0554606 0.062955 0.209903)
(0.0579044 0.0607148 0.209903)
(0.0602578 0.0583798 0.209903)
(0.0625172 0.0559537 0.209903)
(0.0646789 0.0534401 0.209903)
(0.0667396 0.0508432 0.209903)
(0.0686962 0.0481668 0.209903)
(0.0705455 0.0454153 0.209903)
(0.0722846 0.0425928 0.209903)
(0.0739109 0.0397038 0.209903)
(0.0754217 0.0367529 0.209903)
(0.0768148 0.0337445 0.209903)
(0.078088 0.0306835 0.209903)
(0.0792392 0.0275745 0.209903)
(0.0802667 0.0244225 0.209903)
(0.0811689 0.0212324 0.209903)
(0.0819444 0.0180091 0.209903)
(0.0825919 0.0147577 0.209903)
(0.0831104 0.0114833 0.209903)
(0.0834992 0.00819089 0.209903)
(0.0837576 0.00488573 0.209903)
(0.0838853 0.00157293 0.209903)
(0.0838819 -0.00174232 0.209903)
(0.0837476 -0.00505485 0.209903)
(0.0834825 -0.00835948 0.209903)
(0.0830871 -0.0116511 0.209903)
(0.0825619 -0.0149245 0.209903)
(0.0819079 -0.0181745 0.209903)
(0.0811259 -0.0213963 0.209903)
(0.0802173 -0.0245846 0.209903)
(0.0791834 -0.0277345 0.209903)
(0.0780259 -0.0308411 0.209903)
(0.0767465 -0.0338996 0.209903)
(0.0753474 -0.0369051 0.209903)
(0.0738305 -0.039853 0.209903)
(0.0721985 -0.0427387 0.209903)
(0.0704536 -0.0455576 0.209903)
(0.0685988 -0.0483054 0.209903)
(0.0666369 -0.0509778 0.209903)
(0.0645709 -0.0535706 0.209903)
(0.0624041 -0.0560798 0.209903)
(0.0601398 -0.0585014 0.209903)
(0.0577817 -0.0608316 0.209903)
(0.0553333 -0.0630669 0.209903)
(0.0527986 -0.0652037 0.209903)
(0.0501814 -0.0672387 0.209903)
(0.0474858 -0.0691687 0.209903)
(0.0447161 -0.0709907 0.209903)
(0.0418766 -0.0727018 0.209903)
(0.0389717 -0.0742995 0.209903)
(0.036006 -0.0757811 0.209903)
(0.032984 -0.0771444 0.209903)
(0.0299105 -0.0783873 0.209903)
(0.0267904 -0.0795078 0.209903)
(0.0236284 -0.0805041 0.209903)
(0.0204295 -0.0813747 0.209903)
(0.0171987 -0.0821183 0.209903)
(0.0139411 -0.0827337 0.209903)
(0.0106617 -0.0832198 0.209903)
(0.0073656 -0.0835761 0.209903)
(0.00405804 -0.0838018 0.209903)
(0.000744148 -0.0838967 0.209903)
(-0.00257091 -0.0838606 0.209903)
(-0.00588195 -0.0836936 0.209903)
(-0.0091838 -0.0833959 0.209903)
(-0.0124713 -0.0829679 0.209903)
(-0.0157394 -0.0824104 0.209903)
(-0.0189828 -0.0817243 0.209903)
(-0.0221967 -0.0809106 0.209903)
(-0.0253758 -0.0799705 0.209903)
(-0.0285154 -0.0789055 0.209903)
(-0.0316104 -0.0777174 0.209903)
(-0.0346561 -0.0764079 0.209903)
(-0.0376476 -0.0749791 0.209903)
(-0.0405804 -0.0734332 0.209903)
(-0.0434498 -0.0717727 0.209903)
(-0.0462514 -0.0700001 0.209903)
(-0.0489808 -0.0681182 0.209903)
(-0.0516337 -0.06613 0.209903)
(-0.0542059 -0.0640385 0.209903)
(-0.0566936 -0.061847 0.209903)
(-0.0590926 -0.059559 0.209903)
(-0.0613995 -0.0571779 0.209903)
(-0.0636105 -0.0547076 0.209903)
(-0.0657221 -0.0521518 0.209903)
(-0.0677311 -0.0495147 0.209903)
(-0.0696344 -0.0468002 0.209903)
(-0.071429 -0.0440126 0.209903)
(-0.073112 -0.0411564 0.209903)
(-0.0746809 -0.0382358 0.209903)
(-0.0761331 -0.0352556 0.209903)
(-0.0774665 -0.0322203 0.209903)
(-0.078679 -0.0291347 0.209903)
(-0.0797686 -0.0260036 0.209903)
(-0.0807336 -0.0228319 0.209903)
(-0.0815726 -0.0196246 0.209903)
(-0.0822842 -0.0163866 0.209903)
(-0.0828673 -0.0131231 0.209903)
(-0.0833211 -0.009839 0.209903)
(-0.0836447 -0.00653959 0.209903)
(-0.0838378 -0.00322996 0.209903)
(-0.0839 8.47087e-05 0.209903)
(-0.0838311 0.00339924 0.209903)
(-0.0836314 0.00670847 0.209903)
(-0.0833011 0.0100072 0.209903)
(-0.0828407 0.0132904 0.209903)
(-0.0822509 0.0165527 0.209903)
(-0.0815328 0.0197893 0.209903)
(-0.0806873 0.0229949 0.209903)
(-0.0797159 0.0261646 0.209903)
(-0.07862 0.0292935 0.209903)
(-0.0774013 0.0323767 0.209903)
(-0.0760618 0.0354092 0.209903)
(-0.0746035 0.0383865 0.209903)
(-0.0730288 0.0413039 0.209903)
(-0.07134 0.0441568 0.209903)
(-0.0695398 0.0469407 0.209903)
(-0.067631 0.0496513 0.209903)
(-0.0656167 0.0522844 0.209903)
(-0.0634999 0.0548359 0.209903)
(-0.0612839 0.0573018 0.209903)
(-0.0589723 0.0596781 0.209903)
(-0.0565685 0.0619614 0.209903)
(-0.0540765 0.0641478 0.209903)
(-0.0515 0.0662341 0.209903)
(-0.0488431 0.068217 0.209903)
(-0.0433048 0.0718603 3.19795e-17)
(-0.0404321 0.073515 3.09854e-17)
(-0.04611 0.0700934 3.29236e-17)
(-0.0488431 0.068217 3.38163e-17)
(-0.0515 0.0662341 3.46562e-17)
(-0.0540765 0.0641478 3.5442e-17)
(-0.0565685 0.0619614 3.61725e-17)
(-0.0589723 0.0596781 3.68465e-17)
(-0.0612839 0.0573018 3.7463e-17)
(-0.0634999 0.0548359 3.80209e-17)
(-0.0656167 0.0522844 3.85196e-17)
(-0.067631 0.0496513 3.8958e-17)
(-0.0695398 0.0469407 3.93356e-17)
(-0.07134 0.0441568 3.96519e-17)
(-0.0730288 0.0413039 3.99062e-17)
(-0.0746035 0.0383865 4.00981e-17)
(-0.0760618 0.0354092 4.02275e-17)
(-0.0774013 0.0323767 4.02941e-17)
(-0.07862 0.0292935 4.02978e-17)
(-0.0797159 0.0261646 4.02385e-17)
(-0.0806873 0.0229949 4.01164e-17)
(-0.0815328 0.0197893 3.99317e-17)
(-0.0822509 0.0165527 3.96846e-17)
(-0.0828407 0.0132904 3.93756e-17)
(-0.0833011 0.0100072 3.90051e-17)
(-0.0836314 0.00670847 3.85736e-17)
(-0.0838311 0.00339924 3.8082e-17)
(-0.0839 8.47087e-05 3.75309e-17)
(-0.0838378 -0.00322996 3.69212e-17)
(-0.0836447 -0.00653959 3.62538e-17)
(-0.0833211 -0.009839 3.55299e-17)
(-0.0828673 -0.0131231 3.47504e-17)
(-0.0822842 -0.0163866 3.39167e-17)
(-0.0815726 -0.0196246 3.30301e-17)
(-0.0807336 -0.0228319 3.20919e-17)
(-0.0797686 -0.0260036 3.11035e-17)
(-0.078679 -0.0291347 3.00666e-17)
(-0.0774665 -0.0322203 2.89828e-17)
(-0.0761331 -0.0352556 2.78537e-17)
(-0.0746809 -0.0382358 2.66811e-17)
(-0.073112 -0.0411564 2.54669e-17)
(-0.071429 -0.0440126 2.42129e-17)
(-0.0696344 -0.0468002 2.2921e-17)
(-0.0677311 -0.0495147 2.15934e-17)
(-0.0657221 -0.0521518 2.02321e-17)
(-0.0636105 -0.0547076 1.88392e-17)
(-0.0613995 -0.0571779 1.74169e-17)
(-0.0590926 -0.059559 1.59674e-17)
(-0.0566936 -0.061847 1.44929e-17)
(-0.0542059 -0.0640385 1.29958e-17)
(-0.0516337 -0.06613 1.14785e-17)
(-0.0489808 -0.0681182 9.94318e-18)
(-0.0462514 -0.0700001 8.39236e-18)
(-0.0434498 -0.0717727 6.82844e-18)
(-0.0405804 -0.0734332 5.25386e-18)
(-0.0376476 -0.0749791 3.67107e-18)
(-0.0346561 -0.0764079 2.08255e-18)
(-0.0316104 -0.0777174 4.90782e-19)
(-0.0285154 -0.0789055 -1.10175e-18)
(-0.0253758 -0.0799705 -2.69257e-18)
(-0.0221967 -0.0809106 -4.27918e-18)
(-0.0189828 -0.0817243 -5.85911e-18)
(-0.0157394 -0.0824104 -7.42989e-18)
(-0.0124713 -0.0829679 -8.98907e-18)
(-0.0091838 -0.0833959 -1.05342e-17)
(-0.00588195 -0.0836936 -1.20629e-17)
(-0.00257091 -0.0838606 -1.35728e-17)
(0.000744148 -0.0838967 -1.50615e-17)
(0.00405804 -0.0838018 -1.65266e-17)
(0.0073656 -0.0835761 -1.79659e-17)
(0.0106617 -0.0832198 -1.93773e-17)
(0.0139411 -0.0827337 -2.07583e-17)
(0.0171987 -0.0821183 -2.21069e-17)
(0.0204295 -0.0813747 -2.3421e-17)
(0.0236284 -0.0805041 -2.46986e-17)
(0.0267904 -0.0795078 -2.59376e-17)
(0.0299105 -0.0783873 -2.71361e-17)
(0.032984 -0.0771444 -2.82922e-17)
(0.036006 -0.0757811 -2.94041e-17)
(0.0389717 -0.0742995 -3.04701e-17)
(0.0418766 -0.0727018 -3.14886e-17)
(0.0447161 -0.0709907 -3.24579e-17)
(0.0474858 -0.0691687 -3.33765e-17)
(0.0501814 -0.0672387 -3.4243e-17)
(0.0527986 -0.0652037 -3.5056e-17)
(0.0553333 -0.0630669 -3.58143e-17)
(0.0577817 -0.0608316 -3.65166e-17)
(0.0601398 -0.0585014 -3.7162e-17)
(0.0624041 -0.0560798 -3.77493e-17)
(0.0645709 -0.0535706 -3.82777e-17)
(0.0666369 -0.0509778 -3.87463e-17)
(0.0685988 -0.0483054 -3.91545e-17)
(0.0704536 -0.0455576 -3.95015e-17)
(0.0721985 -0.0427387 -3.97868e-17)
(0.0738305 -0.039853 -4.001e-17)
(0.0753474 -0.0369051 -4.01707e-17)
(0.0767465 -0.0338996 -4.02687e-17)
(0.0780259 -0.0308411 -4.03038e-17)
(0.0791834 -0.0277345 -4.0276e-17)
(0.0802173 -0.0245846 -4.01853e-17)
(0.0811259 -0.0213963 -4.00319e-17)
(0.0819079 -0.0181745 -3.98159e-17)
(0.0825619 -0.0149245 -3.95378e-17)
(0.0830871 -0.0116511 -3.9198e-17)
(0.0834825 -0.00835948 -3.87969e-17)
(0.0837476 -0.00505485 -3.83353e-17)
(0.0838819 -0.00174232 -3.78138e-17)
(0.0838853 0.00157293 -3.72333e-17)
(0.0837576 0.00488573 -3.65947e-17)
(0.0834992 0.00819089 -3.58989e-17)
(0.0831104 0.0114833 -3.5147e-17)
(0.0825919 0.0147577 -3.43403e-17)
(0.0819444 0.0180091 -3.348e-17)
(0.0811689 0.0212324 -3.25673e-17)
(0.0802667 0.0244225 -3.16039e-17)
(0.0792392 0.0275745 -3.05911e-17)
(0.078088 0.0306835 -2.95305e-17)
(0.0768148 0.0337445 -2.84238e-17)
(0.0754217 0.0367529 -2.72727e-17)
(0.0739109 0.0397038 -2.60791e-17)
(0.0722846 0.0425928 -2.48447e-17)
(0.0705455 0.0454153 -2.35716e-17)
(0.0686962 0.0481668 -2.22616e-17)
(0.0667396 0.0508432 -2.09169e-17)
(0.0646789 0.0534401 -1.95395e-17)
(0.0625172 0.0559537 -1.81316e-17)
(0.0602578 0.0583798 -1.66954e-17)
(0.0579044 0.0607148 -1.52331e-17)
(0.0554606 0.062955 -1.37471e-17)
(0.0529301 0.0650969 -1.22395e-17)
(0.050317 0.0671372 -1.07129e-17)
(0.0476254 0.0690727 -9.16956e-18)
(0.0448594 0.0709002 -7.61188e-18)
(0.0420233 0.0726171 -6.04233e-18)
(0.0391217 0.0742206 -4.46333e-18)
(0.0361589 0.0757083 -2.87737e-18)
(0.0331397 0.0770777 -1.28692e-18)
(0.0300688 0.0783267 3.05546e-19)
(0.0269509 0.0794535 1.89753e-18)
(0.0237909 0.0804562 3.48656e-18)
(0.0205938 0.0813333 5.07014e-18)
(0.0173645 0.0820834 6.6458e-18)
(0.0141081 0.0827053 8.21109e-18)
(0.0108297 0.0831981 9.76355e-18)
(0.00753435 0.083561 1.13008e-17)
(0.00422725 0.0837934 1.28203e-17)
(0.000913557 0.083895 1.43199e-17)
(-0.00240156 0.0838656 1.57971e-17)
(-0.00571293 0.0837053 1.72497e-17)
(-0.00901539 0.0834142 1.86753e-17)
(-0.0123038 0.0829929 2.00717e-17)
(-0.0155729 0.0824421 2.14368e-17)
(-0.0188178 0.0817625 2.27684e-17)
(-0.0220332 0.0809552 2.40645e-17)
(-0.0252143 0.0800216 2.5323e-17)
(-0.028356 0.078963 2.6542e-17)
(-0.0314534 0.0777811 2.77195e-17)
(-0.0345017 0.0764777 2.88538e-17)
(-0.0374962 0.075055 2.99429e-17)
(-0.0458856 0.0761428 0.209903)
(-0.0429354 0.0778445 0.209903)
(-0.0487684 0.0743294 0.209903)
(-0.0515796 0.0724069 0.209903)
(-0.0543151 0.0703781 0.209903)
(-0.056971 0.068246 0.209903)
(-0.0595432 0.0660138 0.209903)
(-0.062028 0.0636847 0.209903)
(-0.0644218 0.0612621 0.209903)
(-0.066721 0.0587496 0.209903)
(-0.0689223 0.0561509 0.209903)
(-0.0710225 0.0534698 0.209903)
(-0.0730184 0.0507102 0.209903)
(-0.0749071 0.0478762 0.209903)
(-0.076686 0.0449719 0.209903)
(-0.0783522 0.0420016 0.209903)
(-0.0799035 0.0389697 0.209903)
(-0.0813375 0.0358806 0.209903)
(-0.0826522 0.0327388 0.209903)
(-0.0838455 0.029549 0.209903)
(-0.0849158 0.0263158 0.209903)
(-0.0858614 0.023044 0.209903)
(-0.0866811 0.0197383 0.209903)
(-0.0873735 0.0164037 0.209903)
(-0.0879377 0.0130451 0.209903)
(-0.0883728 0.00966723 0.209903)
(-0.0886782 0.00627522 0.209903)
(-0.0888535 0.00287399 0.209903)
(-0.0888984 -0.00053145 0.209903)
(-0.0888128 -0.00393611 0.209903)
(-0.0885969 -0.007335 0.209903)
(-0.0882509 -0.0107231 0.209903)
(-0.0877754 -0.0140955 0.209903)
(-0.0871711 -0.0174472 0.209903)
(-0.0864389 -0.0207733 0.209903)
(-0.0855798 -0.0240689 0.209903)
(-0.0845951 -0.0273292 0.209903)
(-0.0834862 -0.0305493 0.209903)
(-0.0822548 -0.0337247 0.209903)
(-0.0809027 -0.0368505 0.209903)
(-0.0794319 -0.0399223 0.209903)
(-0.0778445 -0.0429354 0.209903)
(-0.0761428 -0.0458856 0.209903)
(-0.0743294 -0.0487684 0.209903)
(-0.0724069 -0.0515796 0.209903)
(-0.0703781 -0.0543151 0.209903)
(-0.068246 -0.056971 0.209903)
(-0.0660138 -0.0595432 0.209903)
(-0.0636847 -0.062028 0.209903)
(-0.0612621 -0.0644218 0.209903)
(-0.0587496 -0.066721 0.209903)
(-0.0561509 -0.0689223 0.209903)
(-0.0534698 -0.0710225 0.209903)
(-0.0507102 -0.0730184 0.209903)
(-0.0478762 -0.0749071 0.209903)
(-0.0449719 -0.076686 0.209903)
(-0.0420016 -0.0783522 0.209903)
(-0.0389697 -0.0799035 0.209903)
(-0.0358806 -0.0813375 0.209903)
(-0.0327388 -0.0826522 0.209903)
(-0.029549 -0.0838455 0.209903)
(-0.0263158 -0.0849158 0.209903)
(-0.023044 -0.0858614 0.209903)
(-0.0197383 -0.0866811 0.209903)
(-0.0164037 -0.0873735 0.209903)
(-0.0130451 -0.0879377 0.209903)
(-0.00966723 -0.0883728 0.209903)
(-0.00627522 -0.0886782 0.209903)
(-0.00287399 -0.0888535 0.209903)
(0.00053145 -0.0888984 0.209903)
(0.00393611 -0.0888128 0.209903)
(0.007335 -0.0885969 0.209903)
(0.0107231 -0.0882509 0.209903)
(0.0140955 -0.0877754 0.209903)
(0.0174472 -0.0871711 0.209903)
(0.0207733 -0.0864389 0.209903)
(0.0240689 -0.0855798 0.209903)
(0.0273292 -0.0845951 0.209903)
(0.0305493 -0.0834862 0.209903)
(0.0337247 -0.0822548 0.209903)
(0.0368505 -0.0809027 0.209903)
(0.0399223 -0.0794319 0.209903)
(0.0429354 -0.0778445 0.209903)
(0.0458856 -0.0761428 0.209903)
(0.0487684 -0.0743294 0.209903)
(0.0515796 -0.0724069 0.209903)
(0.0543151 -0.0703781 0.209903)
(0.056971 -0.068246 0.209903)
(0.0595432 -0.0660138 0.209903)
(0.062028 -0.0636847 0.209903)
(0.0644218 -0.0612621 0.209903)
(0.066721 -0.0587496 0.209903)
(0.0689223 -0.0561509 0.209903)
(0.0710225 -0.0534698 0.209903)
(0.0730184 -0.0507102 0.209903)
(0.0749071 -0.0478762 0.209903)
(0.076686 -0.0449719 0.209903)
(0.0783522 -0.0420016 0.209903)
(0.0799035 -0.0389697 0.209903)
(0.0813375 -0.0358806 0.209903)
(0.0826522 -0.0327388 0.209903)
(0.0838455 -0.029549 0.209903)
(0.0849158 -0.0263158 0.209903)
(0.0858614 -0.023044 0.209903)
(0.0866811 -0.0197383 0.209903)
(0.0873735 -0.0164037 0.209903)
(0.0879377 -0.0130451 0.209903)
(0.0883728 -0.00966723 0.209903)
(0.0886782 -0.00627522 0.209903)
(0.0888535 -0.00287399 0.209903)
(0.0888984 0.00053145 0.209903)
(0.0888128 0.00393611 0.209903)
(0.0885969 0.007335 0.209903)
(0.0882509 0.0107231 0.209903)
(0.0877754 0.0140955 0.209903)
(0.0871711 0.0174472 0.209903)
(0.0864389 0.0207733 0.209903)
(0.0855798 0.0240689 0.209903)
(0.0845951 0.0273292 0.209903)
(0.0834862 0.0305493 0.209903)
(0.0822548 0.0337247 0.209903)
(0.0809027 0.0368505 0.209903)
(0.0794319 0.0399223 0.209903)
(0.0778445 0.0429354 0.209903)
(0.0761428 0.0458856 0.209903)
(0.0743294 0.0487684 0.209903)
(0.0724069 0.0515796 0.209903)
(0.0703781 0.0543151 0.209903)
(0.068246 0.056971 0.209903)
(0.0660138 0.0595432 0.209903)
(0.0636847 0.062028 0.209903)
(0.0612621 0.0644218 0.209903)
(0.0587496 0.066721 0.209903)
(0.0561509 0.0689223 0.209903)
(0.0534698 0.0710225 0.209903)
(0.0507102 0.0730184 0.209903)
(0.0478762 0.0749071 0.209903)
(0.0449719 0.076686 0.209903)
(0.0420016 0.0783522 0.209903)
(0.0389697 0.0799035 0.209903)
(0.0358806 0.0813375 0.209903)
(0.0327388 0.0826522 0.209903)
(0.029549 0.0838455 0.209903)
(0.0263158 0.0849158 0.209903)
(0.023044 0.0858614 0.209903)
(0.0197383 0.0866811 0.209903)
(0.0164037 0.0873735 0.209903)
(0.0130451 0.0879377 0.209903)
(0.00966723 0.0883728 0.209903)
(0.00627522 0.0886782 0.209903)
(0.00287399 0.0888535 0.209903)
(-0.00053145 0.0888984 0.209903)
(-0.00393611 0.0888128 0.209903)
(-0.007335 0.0885969 0.209903)
(-0.0107231 0.0882509 0.209903)
(-0.0140955 0.0877754 0.209903)
(-0.0174472 0.0871711 0.209903)
(-0.0207733 0.0864389 0.209903)
(-0.0240689 0.0855798 0.209903)
(-0.0273292 0.0845951 0.209903)
(-0.0305493 0.0834862 0.209903)
(-0.0337247 0.0822548 0.209903)
(-0.0368505 0.0809027 0.209903)
(-0.0399223 0.0794319 0.209903)
(-0.0458856 0.0761428 3.38853e-17)
(-0.0487684 0.0743294 3.4856e-17)
(-0.0429354 0.0778445 3.28648e-17)
(-0.0399223 0.0794319 3.17962e-17)
(-0.0368505 0.0809027 3.06809e-17)
(-0.0337247 0.0822548 2.95205e-17)
(-0.0305493 0.0834862 2.83168e-17)
(-0.0273292 0.0845951 2.70716e-17)
(-0.0240689 0.0855798 2.57866e-17)
(-0.0207733 0.0864389 2.44638e-17)
(-0.0174472 0.0871711 2.31051e-17)
(-0.0140955 0.0877754 2.17125e-17)
(-0.0107231 0.0882509 2.0288e-17)
(-0.007335 0.0885969 1.88337e-17)
(-0.00393611 0.0888128 1.73518e-17)
(-0.00053145 0.0888984 1.58444e-17)
(0.00287399 0.0888535 1.43138e-17)
(0.00627522 0.0886782 1.27622e-17)
(0.00966723 0.0883728 1.11918e-17)
(0.0130451 0.0879377 9.60501e-18)
(0.0164037 0.0873735 8.00412e-18)
(0.0197383 0.0866811 6.39148e-18)
(0.023044 0.0858614 4.76947e-18)
(0.0263158 0.0849158 3.14045e-18)
(0.029549 0.0838455 1.50682e-18)
(0.0327388 0.0826522 -1.29013e-19)
(0.0358806 0.0813375 -1.76466e-18)
(0.0389697 0.0799035 -3.39772e-18)
(0.0420016 0.0783522 -5.02579e-18)
(0.0449719 0.076686 -6.64648e-18)
(0.0478762 0.0749071 -8.25742e-18)
(0.0507102 0.0730184 -9.85624e-18)
(0.0534698 0.0710225 -1.14406e-17)
(0.0561509 0.0689223 -1.30082e-17)
(0.0587496 0.066721 -1.45566e-17)
(0.0612621 0.0644218 -1.60837e-17)
(0.0636847 0.062028 -1.75872e-17)
(0.0660138 0.0595432 -1.90649e-17)
(0.068246 0.056971 -2.05147e-17)
(0.0703781 0.0543151 -2.19343e-17)
(0.0724069 0.0515796 -2.33217e-17)
(0.0743294 0.0487684 -2.46749e-17)
(0.0761428 0.0458856 -2.59918e-17)
(0.0778445 0.0429354 -2.72707e-17)
(0.0794319 0.0399223 -2.85095e-17)
(0.0809027 0.0368505 -2.97064e-17)
(0.0822548 0.0337247 -3.08598e-17)
(0.0834862 0.0305493 -3.19679e-17)
(0.0845951 0.0273292 -3.3029e-17)
(0.0855798 0.0240689 -3.40417e-17)
(0.0864389 0.0207733 -3.50044e-17)
(0.0871711 0.0174472 -3.59157e-17)
(0.0877754 0.0140955 -3.67744e-17)
(0.0882509 0.0107231 -3.7579e-17)
(0.0885969 0.007335 -3.83285e-17)
(0.0888128 0.00393611 -3.90218e-17)
(0.0888984 0.00053145 -3.96578e-17)
(0.0888535 -0.00287399 -4.02356e-17)
(0.0886782 -0.00627522 -4.07543e-17)
(0.0883728 -0.00966723 -4.12132e-17)
(0.0879377 -0.0130451 -4.16117e-17)
(0.0873735 -0.0164037 -4.1949e-17)
(0.0866811 -0.0197383 -4.22248e-17)
(0.0858614 -0.023044 -4.24387e-17)
(0.0849158 -0.0263158 -4.25902e-17)
(0.0838455 -0.029549 -4.26792e-17)
(0.0826522 -0.0327388 -4.27056e-17)
(0.0813375 -0.0358806 -4.26693e-17)
(0.0799035 -0.0389697 -4.25704e-17)
(0.0783522 -0.0420016 -4.24091e-17)
(0.076686 -0.0449719 -4.21854e-17)
(0.0749071 -0.0478762 -4.18999e-17)
(0.0730184 -0.0507102 -4.15529e-17)
(0.0710225 -0.0534698 -4.11449e-17)
(0.0689223 -0.0561509 -4.06765e-17)
(0.066721 -0.0587496 -4.01484e-17)
(0.0644218 -0.0612621 -3.95613e-17)
(0.062028 -0.0636847 -3.89163e-17)
(0.0595432 -0.0660138 -3.82141e-17)
(0.056971 -0.068246 -3.74558e-17)
(0.0543151 -0.0703781 -3.66425e-17)
(0.0515796 -0.0724069 -3.57755e-17)
(0.0487684 -0.0743294 -3.4856e-17)
(0.0458856 -0.0761428 -3.38853e-17)
(0.0429354 -0.0778445 -3.28648e-17)
(0.0399223 -0.0794319 -3.17962e-17)
(0.0368505 -0.0809027 -3.06809e-17)
(0.0337247 -0.0822548 -2.95205e-17)
(0.0305493 -0.0834862 -2.83168e-17)
(0.0273292 -0.0845951 -2.70716e-17)
(0.0240689 -0.0855798 -2.57866e-17)
(0.0207733 -0.0864389 -2.44638e-17)
(0.0174472 -0.0871711 -2.31051e-17)
(0.0140955 -0.0877754 -2.17125e-17)
(0.0107231 -0.0882509 -2.0288e-17)
(0.007335 -0.0885969 -1.88337e-17)
(0.00393611 -0.0888128 -1.73518e-17)
(0.00053145 -0.0888984 -1.58444e-17)
(-0.00287399 -0.0888535 -1.43138e-17)
(-0.00627522 -0.0886782 -1.27622e-17)
(-0.00966723 -0.0883728 -1.11918e-17)
(-0.0130451 -0.0879377 -9.60501e-18)
(-0.0164037 -0.0873735 -8.00412e-18)
(-0.0197383 -0.0866811 -6.39148e-18)
(-0.023044 -0.0858614 -4.76947e-18)
(-0.0263158 -0.0849158 -3.14045e-18)
(-0.029549 -0.0838455 -1.50682e-18)
(-0.0327388 -0.0826522 1.29013e-19)
(-0.0358806 -0.0813375 1.76466e-18)
(-0.0389697 -0.0799035 3.39772e-18)
(-0.0420016 -0.0783522 5.02579e-18)
(-0.0449719 -0.076686 6.64648e-18)
(-0.0478762 -0.0749071 8.25742e-18)
(-0.0507102 -0.0730184 9.85624e-18)
(-0.0534698 -0.0710225 1.14406e-17)
(-0.0561509 -0.0689223 1.30082e-17)
(-0.0587496 -0.066721 1.45566e-17)
(-0.0612621 -0.0644218 1.60837e-17)
(-0.0636847 -0.062028 1.75872e-17)
(-0.0660138 -0.0595432 1.90649e-17)
(-0.068246 -0.056971 2.05147e-17)
(-0.0703781 -0.0543151 2.19343e-17)
(-0.0724069 -0.0515796 2.33217e-17)
(-0.0743294 -0.0487684 2.46749e-17)
(-0.0761428 -0.0458856 2.59918e-17)
(-0.0778445 -0.0429354 2.72707e-17)
(-0.0794319 -0.0399223 2.85095e-17)
(-0.0809027 -0.0368505 2.97064e-17)
(-0.0822548 -0.0337247 3.08598e-17)
(-0.0834862 -0.0305493 3.19679e-17)
(-0.0845951 -0.0273292 3.3029e-17)
(-0.0855798 -0.0240689 3.40417e-17)
(-0.0864389 -0.0207733 3.50044e-17)
(-0.0871711 -0.0174472 3.59157e-17)
(-0.0877754 -0.0140955 3.67744e-17)
(-0.0882509 -0.0107231 3.7579e-17)
(-0.0885969 -0.007335 3.83285e-17)
(-0.0888128 -0.00393611 3.90218e-17)
(-0.0888984 -0.00053145 3.96578e-17)
(-0.0888535 0.00287399 4.02356e-17)
(-0.0886782 0.00627522 4.07543e-17)
(-0.0883728 0.00966723 4.12132e-17)
(-0.0879377 0.0130451 4.16117e-17)
(-0.0873735 0.0164037 4.1949e-17)
(-0.0866811 0.0197383 4.22248e-17)
(-0.0858614 0.023044 4.24387e-17)
(-0.0849158 0.0263158 4.25902e-17)
(-0.0838455 0.029549 4.26792e-17)
(-0.0826522 0.0327388 4.27056e-17)
(-0.0813375 0.0358806 4.26693e-17)
(-0.0799035 0.0389697 4.25704e-17)
(-0.0783522 0.0420016 4.24091e-17)
(-0.076686 0.0449719 4.21854e-17)
(-0.0749071 0.0478762 4.18999e-17)
(-0.0730184 0.0507102 4.15529e-17)
(-0.0710225 0.0534698 4.11449e-17)
(-0.0689223 0.0561509 4.06765e-17)
(-0.066721 0.0587496 4.01484e-17)
(-0.0644218 0.0612621 3.95613e-17)
(-0.062028 0.0636847 3.89163e-17)
(-0.0595432 0.0660138 3.82141e-17)
(-0.056971 0.068246 3.74558e-17)
(-0.0543151 0.0703781 3.66425e-17)
(-0.0515796 0.0724069 3.57755e-17)
)

// edges

646
(
(0 1)
(2 0)
(3 2)
(4 3)
(5 4)
(6 5)
(7 6)
(8 7)
(9 8)
(10 9)
(11 10)
(12 11)
(13 12)
(14 13)
(15 14)
(16 15)
(17 16)
(18 17)
(19 18)
(20 19)
(21 20)
(22 21)
(23 22)
(24 23)
(25 24)
(26 25)
(27 26)
(28 27)
(29 28)
(30 29)
(31 30)
(32 31)
(33 32)
(34 33)
(35 34)
(36 35)
(37 36)
(38 37)
(39 38)
(40 39)
(41 40)
(42 41)
(43 42)
(44 43)
(45 44)
(46 45)
(47 46)
(48 47)
(49 48)
(50 49)
(51 50)
(52 51)
(53 52)
(54 53)
(55 54)
(56 55)
(57 56)
(58 57)
(59 58)
(60 59)
(61 60)
(62 61)
(63 62)
(64 63)
(65 64)
(66 65)
(67 66)
(68 67)
(69 68)
(70 69)
(71 70)
(72 71)
(73 72)
(74 73)
(75 74)
(76 75)
(77 76)
(78 77)
(79 78)
(80 79)
(81 80)
(82 81)
(83 82)
(84 83)
(85 84)
(86 85)
(87 86)
(88 87)
(89 88)
(90 89)
(91 90)
(92 91)
(93 92)
(94 93)
(95 94)
(96 95)
(97 96)
(98 97)
(99 98)
(100 99)
(101 100)
(102 101)
(103 102)
(104 103)
(105 104)
(106 105)
(107 106)
(108 107)
(109 108)
(110 109)
(111 110)
(112 111)
(113 112)
(114 113)
(115 114)
(116 115)
(117 116)
(118 117)
(119 118)
(120 119)
(121 120)
(122 121)
(123 122)
(124 123)
(125 124)
(126 125)
(127 126)
(128 127)
(129 128)
(130 129)
(131 130)
(132 131)
(133 132)
(134 133)
(135 134)
(136 135)
(137 136)
(138 137)
(139 138)
(140 139)
(141 140)
(142 141)
(143 142)
(144 143)
(145 144)
(146 145)
(147 146)
(148 147)
(149 148)
(150 149)
(151 150)
(152 151)
(153 152)
(154 153)
(155 154)
(156 155)
(157 156)
(158 157)
(1 158)
(159 160)
(161 159)
(162 161)
(163 162)
(164 163)
(165 164)
(166 165)
(167 166)
(168 167)
(169 168)
(170 169)
(171 170)
(172 171)
(173 172)
(174 173)
(175 174)
(176 175)
(177 176)
(178 177)
(179 178)
(180 179)
(181 180)
(182 181)
(183 182)
(184 183)
(185 184)
(186 185)
(187 186)
(188 187)
(189 188)
(190 189)
(191 190)
(192 191)
(193 192)
(194 193)
(195 194)
(196 195)
(197 196)
(198 197)
(199 198)
(200 199)
(201 200)
(202 201)
(203 202)
(204 203)
(205 204)
(206 205)
(207 206)
(208 207)
(209 208)
(210 209)
(211 210)
(212 211)
(213 212)
(214 213)
(215 214)
(216 215)
(217 216)
(218 217)
(219 218)
(220 219)
(221 220)
(222 221)
(223 222)
(224 223)
(225 224)
(226 225)
(227 226)
(228 227)
(229 228)
(230 229)
(231 230)
(232 231)
(233 232)
(234 233)
(235 234)
(236 235)
(237 236)
(238 237)
(239 238)
(240 239)
(241 240)
(242 241)
(243 242)
(244 243)
(245 244)
(246 245)
(247 246)
(248 247)
(249 248)
(250 249)
(251 250)
(252 251)
(253 252)
(254 253)
(255 254)
(256 255)
(257 256)
(258 257)
(259 258)
(260 259)
(261 260)
(262 261)
(263 262)
(264 263)
(265 264)
(266 265)
(267 266)
(268 267)
(269 268)
(270 269)
(271 270)
(272 271)
(273 272)
(274 273)
(275 274)
(276 275)
(277 276)
(278 277)
(279 278)
(280 279)
(281 280)
(282 281)
(283 282)
(284 283)
(285 284)
(286 285)
(287 286)
(288 287)
(289 288)
(290 289)
(291 290)
(292 291)
(293 292)
(294 293)
(295 294)
(296 295)
(297 296)
(298 297)
(299 298)
(300 299)
(301 300)
(302 301)
(303 302)
(304 303)
(305 304)
(306 305)
(307 306)
(308 307)
(309 308)
(310 309)
(311 310)
(312 311)
(313 312)
(314 313)
(315 314)
(316 315)
(317 316)
(160 317)
(318 319)
(320 318)
(321 320)
(322 321)
(323 322)
(324 323)
(325 324)
(326 325)
(327 326)
(328 327)
(329 328)
(330 329)
(331 330)
(332 331)
(333 332)
(334 333)
(335 334)
(336 335)
(337 336)
(338 337)
(339 338)
(340 339)
(341 340)
(342 341)
(343 342)
(344 343)
(345 344)
(346 345)
(347 346)
(348 347)
(349 348)
(350 349)
(351 350)
(352 351)
(353 352)
(354 353)
(355 354)
(356 355)
(357 356)
(358 357)
(359 358)
(360 359)
(361 360)
(362 361)
(363 362)
(364 363)
(365 364)
(366 365)
(367 366)
(368 367)
(369 368)
(370 369)
(371 370)
(372 371)
(373 372)
(374 373)
(375 374)
(376 375)
(377 376)
(378 377)
(379 378)
(380 379)
(381 380)
(382 381)
(383 382)
(384 383)
(385 384)
(386 385)
(387 386)
(388 387)
(389 388)
(390 389)
(391 390)
(392 391)
(393 392)
(394 393)
(395 394)
(396 395)
(397 396)
(398 397)
(399 398)
(400 399)
(401 400)
(402 401)
(403 402)
(404 403)
(405 404)
(406 405)
(407 406)
(408 407)
(409 408)
(410 409)
(411 410)
(412 411)
(413 412)
(414 413)
(415 414)
(416 415)
(417 416)
(418 417)
(419 418)
(420 419)
(421 420)
(422 421)
(423 422)
(424 423)
(425 424)
(426 425)
(427 426)
(428 427)
(429 428)
(430 429)
(431 430)
(432 431)
(433 432)
(434 433)
(435 434)
(436 435)
(437 436)
(438 437)
(439 438)
(440 439)
(441 440)
(442 441)
(443 442)
(444 443)
(445 444)
(446 445)
(447 446)
(448 447)
(449 448)
(450 449)
(451 450)
(452 451)
(453 452)
(454 453)
(455 454)
(456 455)
(457 456)
(458 457)
(459 458)
(460 459)
(461 460)
(462 461)
(463 462)
(464 463)
(465 464)
(466 465)
(467 466)
(468 467)
(469 468)
(470 469)
(471 470)
(472 471)
(473 472)
(474 473)
(475 474)
(476 475)
(477 476)
(478 477)
(479 478)
(480 479)
(481 480)
(319 481)
(482 483)
(484 482)
(485 484)
(486 485)
(487 486)
(488 487)
(489 488)
(490 489)
(491 490)
(492 491)
(493 492)
(494 493)
(495 494)
(496 495)
(497 496)
(498 497)
(499 498)
(500 499)
(501 500)
(502 501)
(503 502)
(504 503)
(505 504)
(506 505)
(507 506)
(508 507)
(509 508)
(510 509)
(511 510)
(512 511)
(513 512)
(514 513)
(515 514)
(516 515)
(517 516)
(518 517)
(519 518)
(520 519)
(521 520)
(522 521)
(523 522)
(524 523)
(525 524)
(526 525)
(527 526)
(528 527)
(529 528)
(530 529)
(531 530)
(532 531)
(533 532)
(534 533)
(535 534)
(536 535)
(537 536)
(538 537)
(539 538)
(540 539)
(541 540)
(542 541)
(543 542)
(544 543)
(545 544)
(546 545)
(547 546)
(548 547)
(549 548)
(550 549)
(551 550)
(552 551)
(553 552)
(554 553)
(555 554)
(556 555)
(557 556)
(558 557)
(559 558)
(560 559)
(561 560)
(562 561)
(563 562)
(564 563)
(565 564)
(566 565)
(567 566)
(568 567)
(569 568)
(570 569)
(571 570)
(572 571)
(573 572)
(574 573)
(575 574)
(576 575)
(577 576)
(578 577)
(579 578)
(580 579)
(581 580)
(582 581)
(583 582)
(584 583)
(585 584)
(586 585)
(587 586)
(588 587)
(589 588)
(590 589)
(591 590)
(592 591)
(593 592)
(594 593)
(595 594)
(596 595)
(597 596)
(598 597)
(599 598)
(600 599)
(601 600)
(602 601)
(603 602)
(604 603)
(605 604)
(606 605)
(607 606)
(608 607)
(609 608)
(610 609)
(611 610)
(612 611)
(613 612)
(614 613)
(615 614)
(616 615)
(617 616)
(618 617)
(619 618)
(620 619)
(621 620)
(622 621)
(623 622)
(624 623)
(625 624)
(626 625)
(627 626)
(628 627)
(629 628)
(630 629)
(631 630)
(632 631)
(633 632)
(634 633)
(635 634)
(636 635)
(637 636)
(638 637)
(639 638)
(640 639)
(641 640)
(642 641)
(643 642)
(644 643)
(645 644)
(483 645)
)

// concaveStart mixedStart nonFeatureStart
0 0 0
// internalStart flatStart openStart multipleStart
646 646 646 646
// normals

1292
(
(0.532967 -0.846136 0)
(0 0 1)
(0.499125 -0.86653 0)
(0 0 1)
(0.464502 -0.885572 0)
(0 0 1)
(0.429153 -0.903232 0)
(0 0 1)
(0.393136 -0.91948 0)
(0 0 1)
(0.356504 -0.934294 0)
(0 0 1)
(0.319312 -0.94765 0)
(0 0 1)
(0.281625 -0.959525 0)
(0 0 1)
(0.243499 -0.969901 0)
(0 0 1)
(0.204989 -0.978764 0)
(0 0 1)
(0.166166 -0.986098 0)
(0 0 1)
(0.127073 -0.991893 0)
(0 0 1)
(0.0877911 -0.996139 0)
(0 0 1)
(0.0483678 -0.99883 0)
(0 0 1)
(0.00887035 -0.999961 0)
(0 0 1)
(-0.0306428 -0.99953 -0)
(0 0 1)
(-0.0701066 -0.99754 -0)
(0 0 1)
(-0.10946 -0.993991 -0)
(0 0 1)
(-0.148647 -0.98889 -0)
(0 0 1)
(-0.187597 -0.982246 -0)
(0 0 1)
(-0.226254 -0.974068 -0)
(0 0 1)
(-0.264562 -0.964369 -0)
(0 0 1)
(-0.302453 -0.953164 -0)
(0 0 1)
(-0.339875 -0.940471 -0)
(0 0 1)
(-0.376762 -0.92631 -0)
(0 0 1)
(-0.413063 -0.910702 -0)
(0 0 1)
(-0.448721 -0.893672 -0)
(0 0 1)
(-0.483675 -0.875248 -0)
(0 0 1)
(-0.517877 -0.855455 -0)
(0 -0 1)
(-0.551269 -0.834328 -0)
(0 -0 1)
(-0.583799 -0.811898 -0)
(0 -0 1)
(-0.61542 -0.788199 -0)
(0 -0 1)
(-0.646076 -0.763273 -0)
(0 -0 1)
(-0.675728 -0.737151 -0)
(0 -0 1)
(-0.704323 -0.70988 -0)
(0 -0 1)
(-0.731817 -0.681501 -0)
(0 -0 1)
(-0.75817 -0.652056 -0)
(0 -0 1)