/*--------------------------------*- C++ -*----------------------------------*\
 =========                 |
  \      /  F ield         | OpenFOAM: The Open Source CFD Toolbox
   \    /   O peration     | Website:  https://openfoam.org
    \  /    A nd           | Version:  9
     \/     M anipulation  |
\*---------------------------------------------------------------------------*/
FoamFile
{
    version     2.0;
    format      ascii;
    class       vectorField;
    object      cloudPositions;
}
// * * * * * * * * * * * * * * * * * * * * * * * * * * * * * * * * * * * * * //

(
(0.0217804 -0.0754116 0.101668)
(-0.0501941 0.0434955 0.193328)
(-0.0276041 -0.0477014 -0.0295453)
(-0.000838537 -0.0815531 0.130833)
(0.0606184 0.0572883 0.145833)
(0.00417853 -0.0292947 -0.0161327)
(0.00160894 0.00842703 0.102285)
(-0.0041874 -0.0814576 0.0958337)
(-0.0500265 -0.0166978 0.0199756)
(0.0679193 -0.0444443 0.104166)
(-0.0679165 -0.0477997 0.140833)
(0.0611214 -0.0477168 0.207435)
)

// ************************************************************************* //