/*--------------------------------*- C++ -*----------------------------------*\
  =========                 |
  \\      /  F ield         | OpenFOAM: The Open Source CFD Toolbox
   \\    /   O peration     | Website:  https://openfoam.org
    \\  /    A nd           | Version:  9
     \\/     M anipulation  |
\*---------------------------------------------------------------------------*/
FoamFile
{
    format      ascii;
    class       extendedFeatureEdgeMesh;
    location    "constant/extendedFeatureEdgeMesh";
    object      BOTTOM.extendedFeatureEdgeMesh;
}
// * * * * * * * * * * * * * * * * * * * * * * * * * * * * * * * * * * * * * //

// points

367
(
(-0.0433048 0.0718603 6.24501e-17)
(-0.0457728 0.070314 6.24501e-17)
(-0.0407847 0.07332 6.24501e-17)
(-0.0382154 0.0746913 6.24501e-17)
(-0.0481856 0.0686831 6.24501e-17)
(-0.0505403 0.0669693 6.24501e-17)
(-0.0528341 0.0651749 6.24501e-17)
(-0.0550643 0.0633019 6.24501e-17)
(-0.0572282 0.0613527 6.24501e-17)
(-0.059323 0.0593295 6.24501e-17)
(-0.0613464 0.0572348 6.24501e-17)
(-0.0632959 0.0550712 6.24501e-17)
(-0.0651691 0.0528412 6.24501e-17)
(-0.0669638 0.0505476 6.24501e-17)
(-0.0686778 0.048193 6.24501e-17)
(-0.0703091 0.0457804 6.24501e-17)
(-0.0718556 0.0433127 6.24501e-17)
(-0.0733155 0.0407927 6.24501e-17)
(-0.0746871 0.0382236 6.24501e-17)
(-0.0759688 0.0356084 6.24501e-17)
(-0.0771588 0.0329503 6.93889e-17)
(-0.078256 0.0302525 6.93889e-17)
(-0.0792588 0.0275183 6.93889e-17)
(-0.0801661 0.0247509 6.93889e-17)
(-0.0809768 0.0219537 6.93889e-17)
(-0.08169 0.01913 6.24501e-17)
(-0.0823047 0.0162833 6.24501e-17)
(-0.0828203 0.0134169 6.24501e-17)
(-0.083236 0.0105344 6.24501e-17)
(-0.0835515 0.00763924 6.24501e-17)
(-0.0837663 0.00473484 6.24501e-17)
(-0.0838801 0.00182473 6.24501e-17)
(-0.0838929 -0.00108758 6.24501e-17)
(-0.0838047 -0.00399858 6.24501e-17)
(-0.0836154 -0.00690476 6.24501e-17)
(-0.0833254 -0.00980262 5.55112e-17)
(-0.082935 -0.0126887 5.55112e-17)
(-0.0824446 -0.0155594 6.24501e-17)
(-0.0818549 -0.0184114 6.24501e-17)
(-0.0811666 -0.0212413 6.24501e-17)
(-0.0803805 -0.0240455 6.24501e-17)
(-0.0794975 -0.0268208 6.24501e-17)
(-0.0785188 -0.0295637 6.24501e-17)
(-0.0774454 -0.032271 6.24501e-17)
(-0.0762787 -0.0349395 5.55112e-17)
(-0.0750201 -0.0375658 5.55112e-17)
(-0.0736711 -0.0401469 5.55112e-17)
(-0.0722334 -0.0426796 5.55112e-17)
(-0.0707086 -0.0451608 5.55112e-17)
(-0.0690986 -0.0475877 5.55112e-17)
(-0.0674054 -0.0499572 5.55112e-17)
(-0.0656309 -0.0522665 5.55112e-17)
(-0.0637774 -0.0545129 4.85723e-17)
(-0.061847 -0.0566936 4.85723e-17)
(-0.0598421 -0.0588059 4.85723e-17)
(-0.0577651 -0.0608474 4.85723e-17)
(-0.0556185 -0.0628156 4.85723e-17)
(-0.0534048 -0.0647081 4.85723e-17)
(-0.0511268 -0.0665226 4.85723e-17)
(-0.0487873 -0.068257 3.46945e-17)
(-0.0463889 -0.0699091 2.77556e-17)
(-0.0439346 -0.071477 2.77556e-17)
(-0.0414274 -0.0729588 2.77556e-17)
(-0.0388703 -0.0743526 2.77556e-17)
(-0.0362663 -0.0756569 2.77556e-17)
(-0.0336187 -0.07687 2.77556e-17)
(-0.0309305 -0.0779905 2.77556e-17)
(-0.0282051 -0.079017 2.77556e-17)
(-0.0254457 -0.0799483 2.77556e-17)
(-0.0226556 -0.0807832 2.77556e-17)
(-0.0198382 -0.0815209 2.08167e-17)
(-0.0169969 -0.0821603 2.08167e-17)
(-0.0141352 -0.0827007 2.08167e-17)
(-0.0112564 -0.0831415 2.08167e-17)
(-0.00836404 -0.083482 2.08167e-17)
(-0.00546161 -0.083722 2.08167e-17)
(-0.0025526 -0.0838612 6.93889e-18)
(0.000359489 -0.0838992 6.93889e-18)
(0.00327114 -0.0838362 6.93889e-18)
(0.00617886 -0.0836722 6.93889e-18)
(0.00907912 -0.0834073 6.93889e-18)
(0.0119684 -0.083042 6.93889e-18)
(0.0148434 -0.0825765 6.93889e-18)
(0.0177004 -0.0820116 6.93889e-18)
(0.0205361 -0.0813479 6.93889e-18)
(0.023347 -0.0805861 6.93889e-18)
(0.0261298 -0.0797273 6.93889e-18)
(0.0288812 -0.0787724 6.93889e-18)
(0.0315977 -0.0777225 -6.93889e-18)
(0.0342762 -0.0765791 -6.93889e-18)
(0.0369133 -0.0753433 -6.93889e-18)
(0.039506 -0.0740168 -6.93889e-18)
(0.0420511 -0.0726011 -6.93889e-18)
(0.0445455 -0.0710979 -6.93889e-18)
(0.0469862 -0.069509 -6.93889e-18)
(0.0493704 -0.0678364 -6.93889e-18)
(0.051695 -0.066082 -6.93889e-18)
(0.0539574 -0.0642481 -6.93889e-18)
(0.0561547 -0.0623367 -6.93889e-18)
(0.0582844 -0.0603502 -6.93889e-18)
(0.0603438 -0.0582909 -6.93889e-18)
(0.0623306 -0.0561615 -6.93889e-18)
(0.0642422 -0.0539644 -6.93889e-18)
(0.0660764 -0.0517022 -6.93889e-18)
(0.067831 -0.0493778 -6.93889e-18)
(0.0695039 -0.0469938 -6.93889e-18)
(0.071093 -0.0445533 -6.93889e-18)
(0.0725965 -0.042059 -6.93889e-18)
(0.0740125 -0.0395141 -6.93889e-18)
(0.0753393 -0.0369215 -6.93889e-18)
(0.0765753 -0.0342845 -1.38778e-17)
(0.0777191 -0.0316062 -1.38778e-17)
(0.0787692 -0.0288897 -1.38778e-17)
(0.0797245 -0.0261385 -1.38778e-17)
(0.0805836 -0.0233558 -1.38778e-17)
(0.0813457 -0.0205449 -1.38778e-17)
(0.0820097 -0.0177093 -6.93889e-18)
(0.0825749 -0.0148523 -6.93889e-18)
(0.0830406 -0.0119775 -6.93889e-18)
(0.0834063 -0.00908821 -6.93889e-18)
(0.0836715 -0.00618797 -6.93889e-18)
(0.0838358 -0.00328028 -6.93889e-18)
(0.0838992 -0.000368629 -6.93889e-18)
(0.0838614 0.00254346 -6.93889e-18)
(0.0837226 0.00545249 -6.93889e-18)
(0.083483 0.00835495 -6.93889e-18)
(0.0831427 0.0112473 0)
(0.0827022 0.0141262 -6.93889e-18)
(0.0821621 0.016988 -6.93889e-18)
(0.0815231 0.0198293 -6.93889e-18)
(0.0807857 0.0226468 -6.93889e-18)
(0.0799511 0.025437 -6.93889e-18)
(0.0790201 0.0281965 -6.93889e-18)
(0.0779938 0.030922 -6.93889e-18)
(0.0768737 0.0336103 0)
(0.0756608 0.0362581 0)
(0.0743568 0.0388622 0)
(0.0729633 0.0414195 0)
(0.0714818 0.0439268 0)
(0.0699141 0.0463813 0)
(0.0682623 0.0487798 0)
(0.0665282 0.0511196 0)
(0.0647139 0.0533978 6.93889e-18)
(0.0628216 0.0556116 6.93889e-18)
(0.0608537 0.0577584 6.93889e-18)
(0.0588124 0.0598357 6.93889e-18)
(0.0567003 0.0618408 6.93889e-18)
(0.0545198 0.0637714 6.93889e-18)
(0.0522737 0.0656252 6.93889e-18)
(0.0499646 0.0673999 2.08167e-17)
(0.0475952 0.0690934 2.08167e-17)
(0.0451685 0.0707037 2.77556e-17)
(0.0426874 0.0722288 2.77556e-17)
(0.0401549 0.0736668 2.77556e-17)
(0.037574 0.0750161 2.77556e-17)
(0.0349478 0.0762749 2.77556e-17)
(0.0322795 0.0774419 2.77556e-17)
(0.0295723 0.0785156 2.77556e-17)
(0.0268294 0.0794946 2.77556e-17)
(0.0240542 0.0803779 2.77556e-17)
(0.0212501 0.0811643 2.77556e-17)
(0.0184203 0.0818529 3.46945e-17)
(0.0155684 0.0824429 3.46945e-17)
(0.0126977 0.0829336 3.46945e-17)
(0.00981169 0.0833243 3.46945e-17)
(0.00691386 0.0836146 3.46945e-17)
(0.00400771 0.0838042 4.85723e-17)
(0.00109672 0.0838928 4.85723e-17)
(-0.00181559 0.0838803 4.85723e-17)
(-0.00472571 0.0837668 4.85723e-17)
(-0.00763014 0.0835523 4.85723e-17)
(-0.0105254 0.0832372 4.85723e-17)
(-0.0134079 0.0828217 4.85723e-17)
(-0.0162743 0.0823065 4.85723e-17)
(-0.0191211 0.0816921 4.85723e-17)
(-0.0219449 0.0809792 4.85723e-17)
(-0.0247422 0.0801688 4.85723e-17)
(-0.0275097 0.0792618 4.85723e-17)
(-0.030244 0.0782593 6.24501e-17)
(-0.0329419 0.0771624 6.24501e-17)
(-0.0356001 0.0759726 6.24501e-17)
(-0.0458856 0.0761428 6.24501e-17)
(-0.0432877 0.0776491 6.24501e-17)
(-0.0484311 0.0745496 6.24501e-17)
(-0.0509213 0.0728714 6.24501e-17)
(-0.0533534 0.07111 6.24501e-17)
(-0.0557246 0.0692674 6.24501e-17)
(-0.0580323 0.0673459 6.24501e-17)
(-0.0602737 0.0653474 6.93889e-17)
(-0.0624464 0.0632745 6.93889e-17)
(-0.0645478 0.0611293 6.93889e-17)
(-0.0665756 0.0589144 6.93889e-17)
(-0.0685274 0.0566322 6.93889e-17)
(-0.070401 0.0542855 6.93889e-17)
(-0.0721943 0.0518768 6.24501e-17)
(-0.0739052 0.0494089 6.24501e-17)
(-0.0755317 0.0468846 6.24501e-17)
(-0.0770721 0.0443068 6.24501e-17)
(-0.0785246 0.0416785 6.24501e-17)
(-0.0798874 0.0390026 6.93889e-17)
(-0.0811592 0.0362822 6.93889e-17)
(-0.0823383 0.0335205 6.93889e-17)
(-0.0834234 0.0307204 6.93889e-17)
(-0.0844134 0.0278854 6.93889e-17)
(-0.085307 0.0250185 6.93889e-17)
(-0.0861033 0.022123 6.93889e-17)
(-0.0868014 0.0192023 6.93889e-17)
(-0.0874004 0.0162597 6.93889e-17)
(-0.0878997 0.0132986 6.24501e-17)
(-0.0882987 0.0103223 6.24501e-17)
(-0.0885969 0.00733416 6.24501e-17)
(-0.0887941 0.00433769 6.24501e-17)
(-0.08889 0.00133627 6.24501e-17)
(-0.0888844 -0.00166667 6.24501e-17)
(-0.0887774 -0.00466771 6.93889e-17)
(-0.0885691 -0.00766343 6.93889e-17)
(-0.0882597 -0.0106504 6.93889e-17)
(-0.0878497 -0.0136252 6.24501e-17)
(-0.0873394 -0.0165845 6.24501e-17)
(-0.0867294 -0.0195248 6.24501e-17)
(-0.0860205 -0.0224429 6.24501e-17)
(-0.0852134 -0.0253354 6.24501e-17)
(-0.0843091 -0.0281989 6.24501e-17)
(-0.0833086 -0.0310303 6.24501e-17)
(-0.0822131 -0.0338263 6.24501e-17)
(-0.0810237 -0.0365837 5.55112e-17)
(-0.0797419 -0.0392993 5.55112e-17)
(-0.0783691 -0.0419701 5.55112e-17)
(-0.0769069 -0.044593 5.55112e-17)
(-0.075357 -0.047165 5.55112e-17)
(-0.073721 -0.0496832 5.55112e-17)
(-0.0720009 -0.0521448 5.55112e-17)
(-0.0701987 -0.0545468 5.55112e-17)
(-0.0683164 -0.0568866 4.85723e-17)
(-0.0663561 -0.0591614 4.85723e-17)
(-0.0643201 -0.0613688 4.85723e-17)
(-0.0622108 -0.0635061 4.85723e-17)
(-0.0600304 -0.065571 4.85723e-17)
(-0.0577816 -0.0675611 4.85723e-17)
(-0.0554668 -0.0694741 4.85723e-17)
(-0.0530887 -0.0713078 4.85723e-17)
(-0.05065 -0.0730601 3.46945e-17)
(-0.0481536 -0.0747291 3.46945e-17)
(-0.0456022 -0.0763128 3.46945e-17)
(-0.0429988 -0.0778095 2.77556e-17)
(-0.0403463 -0.0792173 2.77556e-17)
(-0.0376478 -0.0805348 2.77556e-17)
(-0.0349063 -0.0817604 2.77556e-17)
(-0.032125 -0.0828926 2.77556e-17)
(-0.0293071 -0.0839304 2.77556e-17)
(-0.0264557 -0.0848723 2.08167e-17)
(-0.0235741 -0.0857174 2.08167e-17)
(-0.0206656 -0.0864647 2.08167e-17)
(-0.0177336 -0.0871133 2.08167e-17)
(-0.0147813 -0.0876626 2.08167e-17)
(-0.0118121 -0.0881118 2.08167e-17)
(-0.00882947 -0.0884605 2.08167e-17)
(-0.00583676 -0.0887082 2.08167e-17)
(-0.00283739 -0.0888547 2.08167e-17)
(0.000165223 -0.0888999 6.93889e-18)
(0.00316764 -0.0888435 6.93889e-18)
(0.00616645 -0.0886859 6.93889e-18)
(0.00915822 -0.088427 6.93889e-18)
(0.0121395 -0.0880673 6.93889e-18)
(0.015107 -0.087607 0)
(0.0180572 -0.0870468 0)
(0.0209869 -0.0863873 0)
(0.0238926 -0.0856292 0)
(0.026771 -0.0847734 0)
(0.0296189 -0.0838208 0)
(0.0324329 -0.0827727 -6.93889e-18)
(0.03521 -0.0816301 -6.93889e-18)
(0.0379469 -0.0803943 -6.93889e-18)
(0.0406405 -0.0790668 -6.93889e-18)
(0.0432877 -0.0776491 -6.93889e-18)
(0.0458856 -0.0761428 -6.93889e-18)
(0.0484311 -0.0745496 -6.93889e-18)
(0.0509213 -0.0728714 -6.93889e-18)
(0.0533534 -0.07111 -6.93889e-18)
(0.0557246 -0.0692674 -6.93889e-18)
(0.0580323 -0.0673459 -6.93889e-18)
(0.0602737 -0.0653474 -1.38778e-17)
(0.0624464 -0.0632745 -1.38778e-17)
(0.0645478 -0.0611293 -1.38778e-17)
(0.0665756 -0.0589144 -1.38778e-17)
(0.0685274 -0.0566322 -1.38778e-17)
(0.070401 -0.0542855 -1.38778e-17)
(0.0721943 -0.0518768 -6.93889e-18)
(0.0739052 -0.0494089 -6.93889e-18)
(0.0755317 -0.0468846 -6.93889e-18)
(0.0770721 -0.0443068 -6.93889e-18)
(0.0785246 -0.0416785 -6.93889e-18)
(0.0798874 -0.0390026 -1.38778e-17)
(0.0811592 -0.0362822 -1.38778e-17)
(0.0823383 -0.0335205 -1.38778e-17)
(0.0834234 -0.0307204 -1.38778e-17)
(0.0844134 -0.0278854 -1.38778e-17)
(0.085307 -0.0250185 -1.38778e-17)
(0.0861033 -0.022123 -1.38778e-17)
(0.0868014 -0.0192023 -1.38778e-17)
(0.0874004 -0.0162597 -1.38778e-17)
(0.0878997 -0.0132986 -6.93889e-18)
(0.0882987 -0.0103223 -6.93889e-18)
(0.0885969 -0.00733416 -6.93889e-18)
(0.0887941 -0.00433769 -6.93889e-18)
(0.08889 -0.00133627 -6.93889e-18)
(0.0888844 0.00166667 -6.93889e-18)
(0.0887774 0.00466771 -1.38778e-17)
(0.0885691 0.00766343 -1.38778e-17)
(0.0882597 0.0106504 -1.38778e-17)
(0.0878497 0.0136252 -6.93889e-18)
(0.0873394 0.0165845 -6.93889e-18)
(0.0867294 0.0195248 -6.93889e-18)
(0.0860205 0.0224429 -6.93889e-18)
(0.0852134 0.0253354 -6.93889e-18)
(0.0843091 0.0281989 -6.93889e-18)
(0.0833086 0.0310303 -6.93889e-18)
(0.0822131 0.0338263 -6.93889e-18)
(0.0810237 0.0365837 0)
(0.0797419 0.0392993 0)
(0.0783691 0.0419701 0)
(0.0769069 0.044593 0)
(0.075357 0.047165 0)
(0.073721 0.0496832 0)
(0.0720009 0.0521448 0)
(0.0701987 0.0545468 0)
(0.0683164 0.0568866 6.93889e-18)
(0.0663561 0.0591614 6.93889e-18)
(0.0643201 0.0613688 6.93889e-18)
(0.0622108 0.0635061 6.93889e-18)
(0.0600304 0.065571 6.93889e-18)
(0.0577816 0.0675611 6.93889e-18)
(0.0554668 0.0694741 6.93889e-18)
(0.0530887 0.0713078 6.93889e-18)
(0.05065 0.0730601 2.08167e-17)
(0.0481536 0.0747291 2.08167e-17)
(0.0456022 0.0763128 2.08167e-17)
(0.0429988 0.0778095 2.77556e-17)
(0.0403463 0.0792173 2.77556e-17)
(0.0376478 0.0805348 2.77556e-17)
(0.0349063 0.0817604 2.77556e-17)
(0.032125 0.0828926 2.77556e-17)
(0.0293071 0.0839304 2.77556e-17)
(0.0264557 0.0848723 3.46945e-17)
(0.0235741 0.0857174 3.46945e-17)
(0.0206656 0.0864647 3.46945e-17)
(0.0177336 0.0871133 3.46945e-17)
(0.0147813 0.0876626 3.46945e-17)
(0.0118121 0.0881118 3.46945e-17)
(0.00882947 0.0884605 3.46945e-17)
(0.00583676 0.0887082 3.46945e-17)
(0.00283739 0.0888547 3.46945e-17)
(-0.000165223 0.0888999 4.85723e-17)
(-0.00316764 0.0888435 4.85723e-17)
(-0.00616645 0.0886859 4.85723e-17)
(-0.00915822 0.088427 4.85723e-17)
(-0.0121395 0.0880673 4.85723e-17)
(-0.015107 0.087607 5.55112e-17)
(-0.0180572 0.0870468 5.55112e-17)
(-0.0209869 0.0863873 5.55112e-17)
(-0.0238926 0.0856292 5.55112e-17)
(-0.026771 0.0847734 5.55112e-17)
(-0.0296189 0.0838208 5.55112e-17)
(-0.0324329 0.0827727 6.24501e-17)
(-0.03521 0.0816301 6.24501e-17)
(-0.0379469 0.0803943 6.24501e-17)
(-0.0406405 0.0790668 6.24501e-17)
)

// edges

367
(
(0 1)
(2 0)
(3 2)
(1 4)
(4 5)
(5 6)
(6 7)
(7 8)
(8 9)
(9 10)
(10 11)
(11 12)
(12 13)
(13 14)
(14 15)
(15 16)
(16 17)
(17 18)
(18 19)
(19 20)
(20 21)
(21 22)
(22 23)
(23 24)
(24 25)
(25 26)
(26 27)
(27 28)
(28 29)
(29 30)
(30 31)
(31 32)
(32 33)
(33 34)
(34 35)
(35 36)
(36 37)
(37 38)
(38 39)
(39 40)
(40 41)
(41 42)
(42 43)
(43 44)
(44 45)
(45 46)
(46 47)
(47 48)
(48 49)
(49 50)
(50 51)
(51 52)
(52 53)
(53 54)
(54 55)
(55 56)
(56 57)
(57 58)
(58 59)
(59 60)
(60 61)
(61 62)
(62 63)
(63 64)
(64 65)
(65 66)
(66 67)
(67 68)
(68 69)
(69 70)
(70 71)
(71 72)
(72 73)
(73 74)
(74 75)
(75 76)
(76 77)
(77 78)
(78 79)
(79 80)
(80 81)
(81 82)
(82 83)
(83 84)
(84 85)
(85 86)
(86 87)
(87 88)
(88 89)
(89 90)
(90 91)
(91 92)
(92 93)
(93 94)
(94 95)
(95 96)
(96 97)
(97 98)
(98 99)
(99 100)
(100 101)
(101 102)
(102 103)
(103 104)
(104 105)
(105 106)
(106 107)
(107 108)
(108 109)
(109 110)
(110 111)
(111 112)
(112 113)
(113 114)
(114 115)
(115 116)
(116 117)
(117 118)
(118 119)
(119 120)
(120 121)
(121 122)
(122 123)
(123 124)
(124 125)
(125 126)
(126 127)
(127 128)
(128 129)
(129 130)
(130 131)
(131 132)
(132 133)
(133 134)
(134 135)
(135 136)
(136 137)
(137 138)
(138 139)
(139 140)
(140 141)
(141 142)
(142 143)
(143 144)
(144 145)
(145 146)
(146 147)
(147 148)
(148 149)
(149 150)
(150 151)
(151 152)
(152 153)
(153 154)
(154 155)
(155 156)
(156 157)
(157 158)
(158 159)
(159 160)
(160 161)
(161 162)
(162 163)
(163 164)
(164 165)
(165 166)
(166 167)
(167 168)
(168 169)
(169 170)
(170 171)
(171 172)
(172 173)
(173 174)
(174 175)
(175 176)
(176 177)
(177 178)
(178 179)
(179 180)
(180 3)
(181 182)
(183 181)
(184 183)
(185 184)
(186 185)
(187 186)
(188 187)
(189 188)
(190 189)
(191 190)
(192 191)
(193 192)
(194 193)
(195 194)
(196 195)
(197 196)
(198 197)
(199 198)
(200 199)
(201 200)
(202 201)
(203 202)
(204 203)
(205 204)
(206 205)
(207 206)
(208 207)
(209 208)
(210 209)
(211 210)
(212 211)
(213 212)
(214 213)
(215 214)
(216 215)
(217 216)
(218 217)
(219 218)
(220 219)
(221 220)
(222 221)
(223 222)
(224 223)
(225 224)
(226 225)
(227 226)
(228 227)
(229 228)
(230 229)
(231 230)
(232 231)
(233 232)
(234 233)
(235 234)
(236 235)
(237 236)
(238 237)
(239 238)
(240 239)
(241 240)
(242 241)
(243 242)
(244 243)
(245 244)
(246 245)
(247 246)
(248 247)
(249 248)
(250 249)
(251 250)
(252 251)
(253 252)
(254 253)
(255 254)
(256 255)
(257 256)
(258 257)
(259 258)
(260 259)
(261 260)
(262 261)
(263 262)
(264 263)
(265 264)
(266 265)
(267 266)
(268 267)
(269 268)
(270 269)
(271 270)
(272 271)
(273 272)
(274 273)
(275 274)
(276 275)
(277 276)
(278 277)
(279 278)
(280 279)
(281 280)
(282 281)
(283 282)
(284 283)
(285 284)
(286 285)
(287 286)
(288 287)
(289 288)
(290 289)
(291 290)
(292 291)
(293 292)
(294 293)
(295 294)
(296 295)
(297 296)
(298 297)
(299 298)
(300 299)
(301 300)
(302 301)
(303 302)
(304 303)
(305 304)
(306 305)
(307 306)
(308 307)
(309 308)
(310 309)
(311 310)
(312 311)
(313 312)
(314 313)
(315 314)
(316 315)
(317 316)
(318 317)
(319 318)
(320 319)
(321 320)
(322 321)
(323 322)
(324 323)
(325 324)
(326 325)
(327 326)
(328 327)
(329 328)
(330 329)
(331 330)
(332 331)
(333 332)
(334 333)
(335 334)
(336 335)
(337 336)
(338 337)
(339 338)
(340 339)
(341 340)
(342 341)
(343 342)
(344 343)
(345 344)
(346 345)
(347 346)
(348 347)
(349 348)
(350 349)
(351 350)
(352 351)
(353 352)
(354 353)
(355 354)
(356 355)
(357 356)
(358 357)
(359 358)
(360 359)
(361 360)
(362 361)
(363 362)
(364 363)
(365 364)
(366 365)
(182 366)
)

// concaveStart mixedStart nonFeatureStart
0 0 0
// internalStart flatStart openStart multipleStart
367 367 367 367
// normals

734
(
(0.530936 -0.847412 0)
(0 0 1)
(0.501206 -0.865328 0)
(0 0 1)
(0.47087 -0.882203 0)
(0 0 1)
(0.560026 -0.828475 0)
(0 0 1)
(0.588444 -0.808538 0)
(0 0 1)
(0.61615 -0.787629 0)
(0 0 1)
(0.643116 -0.765769 0)
(0 0 1)
(0.669305 -0.742988 0)
(9.27641e-16 -1.02976e-15 1)
(0.694688 -0.719311 0)
(9.62642e-16 -9.96763e-16 1)
(0.719236 -0.694766 0)
(9.96488e-16 -9.62585e-16 1)
(0.742914 -0.669387 0)
(1.02913e-15 -9.27279e-16 1)
(0.765699 -0.643199 0)
(1.06055e-15 -8.90875e-16 1)
(0.787562 -0.616235 0)
(1.09069e-15 -8.53422e-16 1)
(0.808475 -0.58853 0)
(0 0 1)
(0.828413 -0.560118 0)
(0 0 1)
(0.847354 -0.531028 0)
(0 0 1)
(0.865274 -0.5013 0)
(0 0 1)
(0.882152 -0.470965 0)
(0 0 1)
(0.897966 -0.440065 0)
(1.24306e-15 -6.09185e-16 1)
(0.912698 -0.408635 0)
(1.58373e-15 1.90142e-15 1)
(0.92633 -0.376714 0)
(0 0 1)
(0.938847 -0.344334 0)
(0 0 1)
(0.950231 -0.311546 0)
(0 0 1)
(0.960472 -0.278377 0)
(0 0 1)
(0.969555 -0.244874 0)
(-8.05067e-17 -2.43707e-15 1)
(0.97747 -0.211076 0)
(1.3534e-15 -2.92254e-16 1)
(0.984207 -0.177024 0)
(1.36285e-15 -2.45128e-16 1)
(0.989758 -0.142757 0)
(0 0 1)
(0.994116 -0.108323 0)
(0 0 1)
(0.997276 -0.0737553 0)
(0 0 1)
(0.999235 -0.0390957 0)
(0 0 1)
(0.99999 -0.00439513 0)
(0 0 1)
(0.99954 0.0303157 -0)
(0 0 1)
(0.997886 0.0649855 -0)
(1.38327e-15 9.00829e-17 1)
(0.995029 0.0995837 -0)
(1.7408e-15 -2.22027e-15 1)
(0.990974 0.134057 -0)
(2.74861e-15 3.71826e-16 1)
(0.985724 0.168371 -0)
(9.2127e-16 2.57446e-15 1)
(0.979287 0.202475 -0)
(0 0 1)
(0.971669 0.236347 -0)
(0 0 1)
(0.962882 0.269924 -0)
(0 0 1)
(0.952933 0.303182 -0)
(0 0 1)
(0.941836 0.336074 -0)
(0 0 1)
(0.929605 0.368557 -0)
(0 0 1)
(0.916254 0.400599 -0)
(7.8251e-16 -2.25823e-15 1)
(0.901798 0.432158 -0)
(0 0 1)
(0.886254 0.4632 -0)
(0 0 1)
(0.869647 0.493675 -0)
(0 0 1)
(0.851987 0.523563 -0)
(0 0 1)
(0.833304 0.552815 -0)
(0 0 1)
(0.813614 0.581405 -0)
(0 0 1)
(0.792947 0.609291 -0)
(0 0 1)
(0.771322 0.636445 -0)
(1.12844e-15 -2.15785e-15 1)
(0.748768 0.662832 -0)
(0 0 1)
(0.725311 0.688421 -0)
(0 0 1)
(0.700984 0.713177 -0)
(0 0 1)
(0.675808 0.737078 -0)
(0 0 1)
(0.649817 0.760091 -0)
(0 0 1)
(0.62305 0.782182 -0)
(0 0 1)
(0.595526 0.803336 -0)
(4.54913e-15 -1.86508e-15 1)
(0.567284 0.823522 -0)
(2.2832e-15 -8.85489e-16 1)
(0.53836 0.842715 -0)
(7.45343e-16 1.16671e-15 1)
(0.508792 0.86089 -0)
(7.04458e-16 1.19196e-15 1)
(0.478602 0.878032 -0)
(0 0 1)
(0.447844 0.894112 -0)
(0 0 1)
(0.41654 0.909117 -0)
(0 0 1)
(0.384736 0.923026 -0)
(0 0 1)
(0.35247 0.935823 -0)
(0 0 1)
(0.319776 0.947493 -0)
(0 0 1)
(0.286701 0.95802 -0)
(-3.97332e-16 -1.32769e-15 1)
(0.253283 0.967392 -0)
(1.99735e-15 -1.77812e-15 1)
(0.219552 0.975601 -0)
(0 0 1)
(0.185557 0.982633 -0)
(0 0 1)
(0.151343 0.988481 -0)
(0 0 1)
(0.116944 0.993138 -0)
(0 0 1)
(0.0824074 0.996599 -0)
(0 0 1)
(0.0477657 0.998859 -0)
(4.89018e-15 2.50025e-15 1)
(0.0130728 0.999915 -0)
(0 0 1)
(-0.021638 0.999766 0)
(-0 0 1)
(-0.0563257 0.998412 0)
(-0 0 1)
(-0.0909444 0.995856 0)
(-0 0 1)
(-0.125453 0.9921 0)
(-0 0 1)
(-0.159806 0.987149 0)
(2.21423e-16 -1.36777e-15 1)
(-0.193977 0.981006 0)
(2.68725e-16 -1.35904e-15 1)
(-0.227902 0.973684 0)
(3.15678e-16 -1.34869e-15 1)
(-0.261559 0.965187 0)
(3.6225e-16 -1.33675e-15 1)
(-0.294901 0.955528 0)
(4.0838e-16 -1.32322e-15 1)
(-0.327886 0.944717 0)
(4.54011e-16 -1.30812e-15 1)
(-0.360477 0.932768 0)
(4.80172e-15 7.94136e-16 1)
(-0.392633 0.919695 0)
(-0 0 1)
(-0.424317 0.905514 0)
(-0 0 1)
(-0.455487 0.890243 0)
(-0 0 1)
(-0.48611 0.873898 0)
(-0 0 1)
(-0.516149 0.856499 0)
(-0 0 1)
(-0.545564 0.838069 0)
(-0 0 1)
(-0.574321 0.81863 0)
(-0 0 1)
(-0.602387 0.798204 0)
(-0 0 1)
(-0.629727 0.776817 0)
(-0 0 1)
(-0.656308 0.754493 0)
(-0 0 1)
(-0.682101 0.731258 0)
(9.44482e-16 -1.01255e-15 1)
(-0.707069 0.707145 0)
(9.79151e-16 -9.79256e-16 1)
(-0.731183 0.682182 0)
(1.01266e-15 -9.44797e-16 1)
(-0.754422 0.65639 0)
(1.04499e-15 -9.09198e-16 1)
(-0.776746 0.629814 0)
(1.07606e-15 -8.72512e-16 1)
(-0.79814 0.602472 0)
(1.10588e-15 -8.3477e-16 1)
(-0.818567 0.574412 0)
(-0 0 1)
(-0.838009 0.545657 0)
(-0 0 1)
(-0.856443 0.516241 0)
(-0 0 1)
(-0.873845 0.486204 0)
(-0 0 1)
(-0.890192 0.455586 0)
(-0 0 1)
(-0.905468 0.424414 0)
(2.24762e-15 1.57782e-15 1)
(-0.919653 0.392732 0)
(-0 0 1)
(-0.932729 0.360577 0)
(0 0 1)
(-0.94468 0.327993 0)
(0 0 1)
(-0.955496 0.295003 0)
(0 0 1)
(-0.965159 0.261666 0)
(0 0 1)
(-0.973659 0.22801 0)
(6.39016e-16 -2.59669e-15 1)
(-0.980986 0.194077 0)
(1.35952e-15 -2.68965e-16 1)
(-0.987131 0.159916 0)
(0 0 1)
(-0.992086 0.12556 0)
(0 0 1)
(-0.995846 0.0910493 0)
(0 0 1)
(-0.998406 0.0564357 0)
(0 0 1)
(-0.999763 0.0217505 0)
(0 0 1)
(-0.999916 -0.0129628 0)
(0 -0 1)
(-0.998864 -0.0476583 0)
(1.383e-15 6.59862e-17 1)
(-0.996608 -0.0823 0)
(1.37977e-15 1.13942e-16 1)
(-0.993151 -0.116837 0)
(2.46606e-15 -2.10891e-15 1)
(-0.988498 -0.151235 0)
(2.38118e-16 2.44674e-15 1)
(-0.982654 -0.18545 0)
(0 -0 1)
(-0.975625 -0.219444 0)
(0 -0 1)
(-0.96742 -0.253176 0)
(0 -0 1)
(-0.958052 -0.286594 0)
(0 -0 1)
(-0.947526 -0.319678 0)
(0 -0 1)
(-0.935862 -0.352367 0)
(0 -0 1)
(-0.923068 -0.384636 0)
(1.3807e-15 -2.00584e-15 1)
(-0.909162 -0.416442 0)
(0 -0 1)
(-0.894161 -0.447745 0)
(0 -0 1)
(-0.878083 -0.478509 0)
(0 -0 1)
(-0.860946 -0.508696 0)
(0 -0 1)
(-0.842772 -0.538271 0)
(0 -0 1)
(-0.823584 -0.567195 0)
(0 -0 1)
(-0.803402 -0.595438 0)
(0 -0 1)
(-0.782252 -0.622962 0)
(1.63107e-15 -1.74688e-15 1)
(-0.760159 -0.649737 0)
(0 -0 1)
(-0.737152 -0.675727 0)
(0 -0 1)
(-0.713253 -0.700907 0)
(0 -0 1)
(-0.6885 -0.725236 0)
(0 -0 1)
(-0.662913 -0.748696 0)
(0 -0 1)
(-0.63653 -0.771252 0)
(0 -0 1)
(-0.609377 -0.792881 0)
(5.41325e-15 -7.76368e-16 1)
(-0.581494 -0.813551 0)
(0 -0 1)
(-0.552907 -0.833243 0)
(2.68302e-15 -2.65833e-16 1)
(-0.523655 -0.851931 0)
(7.25893e-16 1.18095e-15 1)
(-0.493771 -0.869592 0)
(0 -0 1)
(-0.463296 -0.886204 0)
(0 -0 1)
(-0.432254 -0.901752 0)
(0 -0 1)
(-0.400701 -0.916209 0)
(0 0 1)
(-0.368658 -0.929565 0)
(0 0 1)
(-0.336177 -0.941799 0)
(0 0 1)
(-0.303284 -0.9529 0)
(-4.19963e-16 -1.3195e-15 1)
(-0.270032 -0.962851 0)
(-3.73884e-16 -1.33316e-15 1)
(-0.23645 -0.971644 0)
(2.19237e-15 -1.06738e-15 1)
(-0.202585 -0.979265 0)
(0 0 1)
(-0.168479 -0.985705 0)
(0 0 1)
(-0.134164 -0.990959 0)
(0 0 1)
(-0.0996887 -0.995019 0)
(0 0 1)
(-0.0650981 -0.997879 0)
(4.8421e-15 1.02393e-15 1)
(-0.0304231 -0.999537 0)
(8.42299e-17 2.76733e-15 1)
(0.00428513 -0.999991 0)
(0 0 1)
(0.0389857 -0.99924 0)
(0 0 1)
(0.0736478 -0.997284 0)
(0 0 1)
(0.108213 -0.994128 0)
(0 0 1)
(0.142653 -0.989773 0)
(0 0 1)
(0.176915 -0.984226 0)
(2.45009e-16 -1.36305e-15 1)
(0.210971 -0.977492 0)
(2.9221e-16 -1.3539e-15 1)
(0.244767 -0.969582 0)
(3.39067e-16 -1.34313e-15 1)
(0.278274 -0.960502 0)
(3.85544e-16 -1.33076e-15 1)
(0.311438 -0.950266 0)
(4.31566e-16 -1.3168e-15 1)
(0.344234 -0.938884 0)
(4.81641e-15 7.06267e-16 1)
(0.376613 -0.926371 0)
(0 0 1)
(0.408535 -0.912743 0)
(0 0 1)
(0.439968 -0.898013 0)
(0 0 1)
(-0.50161 0.865094 0)
(0 0 1)
(-0.530539 0.847661 0)
(0 0 1)
(-0.558867 0.829257 0)
(0 0 1)
(-0.586557 0.809908 0)
(0 0 1)
(-0.613573 0.789638 0)
(0 0 1)
(-0.639894 0.768463 0)
(0 0 1)
(-0.665483 0.746413 0)
(1.87127e-15 1.37337e-15 1)
(-0.690313 0.723511 0)
(9.59407e-16 -1.00555e-15 1)
(-0.714356 0.699783 0)
(9.92991e-16 -9.72735e-16 1)
(-0.737583 0.675256 0)
(1.02544e-15 -9.38786e-16 1)
(-0.759965 0.649964 0)
(1.0567e-15 -9.03752e-16 1)
(-0.781486 0.623923 0)
(1.08676e-15 -8.6765e-16 1)
(-0.802112 0.597173 0)
(-6.15594e-16 -2.42245e-15 1)
(-0.821824 0.569741 0)
(0 0 1)
(-0.840598 0.54166 0)
(0 0 1)
(-0.858411 0.512963 0)
(0 0 1)
(-0.875249 0.483673 0)
(0 0 1)
(-0.891083 0.45384 0)
(1.60067e-15 1.77788e-15 1)
(-0.905903 0.423484 0)
(1.26038e-15 -5.89191e-16 1)
(-0.919689 0.392647 0)
(0 0 1)
(-0.932426 0.361361 0)
(0 0 1)
(-0.944097 0.329667 0)
(0 0 1)
(-0.954695 0.297587 0)
(0 0 1)
(-0.9642 0.265176 0)
(0 0 1)
(-0.972606 0.232459 0)
(1.35296e-15 -3.23365e-16 1)
(-0.979902 0.199479 0)
(1.363e-15 -2.77466e-16 1)
(-0.986081 0.166268 0)
(5.48186e-17 -2.35255e-15 1)
(-0.991134 0.132869 0)
(0 0 1)
(-0.995056 0.0993181 0)
(0 0 1)
(-0.997842 0.065657 0)
(0 0 1)
(-0.999491 0.0319167 0)
(0 0 1)
(-0.999998 -0.00185585 -0)
(0 0 1)
(-0.999365 -0.0356334 -0)
(1.07909e-15 2.35063e-15 1)
(-0.997591 -0.0693637 -0)
(1.38599e-15 9.63699e-17 1)
(-0.994679 -0.10302 -0)
(2.76332e-15 2.86199e-16 1)
(-0.990633 -0.136552 -0)
(1.80885e-15 -2.0832e-15 1)
(-0.985455 -0.169934 -0)
(0 0 1)
(-0.979155 -0.203117 -0)
(0 0 1)
(-0.971735 -0.236073 -0)
(0 0 1)
(-0.963208 -0.268757 -0)
(0 0 1)
(-0.953581 -0.301137 -0)
(0 0 1)
(-0.942867 -0.333171 -0)
(0 0 1)
(-0.931077 -0.364824 -0)
(0 0 1)
(-0.918223 -0.396064 -0)
(7.19652e-16 -2.20608e-15 1)
(-0.904322 -0.42685 -0)
(0 0 1)
(-0.889391 -0.457146 -0)
(0 0 1)
(-0.873443 -0.486927 -0)
(0 0 1)
(-0.8565 -0.516147 -0)
(0 0 1)
(-0.838578 -0.544782 -0)
(0 0 1)
(-0.8197 -0.572793 -0)
(0 0 1)
(-0.799887 -0.60015 -0)
(0 0 1)
(-0.779162 -0.626823 -0)
(1.05625e-15 -2.11588e-15 1)
(-0.757547 -0.652781 -0)
(0 0 1)
(-0.735066 -0.677996 -0)
(0 0 1)
(-0.711748 -0.702434 -0)
(0 0 1)
(-0.687619 -0.726071 -0)
(0 0 1)
(-0.662703 -0.748882 -0)
(0 0 1)
(-0.637034 -0.770836 -0)
(0 0 1)
(-0.610636 -0.791912 -0)
(0 0 1)
(-0.583541 -0.812084 -0)
(4.45051e-15 -1.72603e-15 1)
(-0.555779 -0.83133 -0)
(7.73182e-16 1.15652e-15 1)
(-0.527385 -0.849627 -0)
(7.33636e-16 1.1819e-15 1)
(-0.498391 -0.866952 -0)
(2.24687e-15 -7.27879e-16 1)
(-0.468826 -0.883291 -0)
(0 0 1)
(-0.438725 -0.898621 -0)
(0 0 1)
(-0.408122 -0.912927 -0)
(0 0 1)
(-0.377059 -0.926189 -0)
(0 0 1)
(-0.345564 -0.938395 -0)
(0 0 1)
(-0.313669 -0.949532 -0)
(1.8431e-15 -1.78725e-15 1)
(-0.281423 -0.959584 -0)
(-3.91083e-16 -1.3335e-15 1)
(-0.248855 -0.968541 -0)
(0 0 1)
(-0.215999 -0.976394 -0)
(0 0 1)
(-0.1829 -0.983131 -0)
(0 0 1)
(-0.14959 -0.988748 -0)
(0 0 1)
(-0.116112 -0.993236 -0)
(0 0 1)
(-0.0824987 -0.996591 -0)
(0 0 1)
(-0.0487906 -0.998809 -0)
(0 0 1)
(-0.0150329 -0.999887 -0)
(4.65969e-15 2.51339e-15 1)
(0.0187496 -0.999824 0)
(0 0 1)
(0.0525048 -0.998621 0)
(0 0 1)
(0.0862054 -0.996277 0)
(0 0 1)
(0.119797 -0.992798 0)
(0 0 1)
(0.153266 -0.988185 0)
(2.32603e-15 7.91914e-17 1)
(0.186553 -0.982445 0)
(2.59343e-16 -1.36578e-15 1)
(0.219628 -0.975584 0)
(3.05368e-16 -1.35644e-15 1)
(0.252451 -0.96761 0)
(3.51051e-16 -1.34553e-15 1)
(0.284988 -0.958531 0)
(3.96342e-16 -1.33306e-15 1)
(0.317197 -0.94836 0)
(4.41181e-16 -1.31905e-15 1)
(0.349048 -0.937105 0)
(2.82403e-15 -9.61805e-16 1)
(0.380498 -0.924782 0)
(0 0 1)
(0.411517 -0.911402 0)
(0 0 1)
(0.442062 -0.896984 0)
(0 0 1)
(0.472101 -0.881544 0)
(0 0 1)
(0.50161 -0.865094 0)
(0 0 1)
(0.530539 -0.847661 0)
(0 0 1)
(0.558867 -0.829257 0)
(0 0 1)
(0.586557 -0.809908 0)
(0 0 1)
(0.613573 -0.789638 0)
(0 0 1)
(0.639894 -0.768463 0)
(0 0 1)
(0.665483 -0.746413 0)
(2.32031e-15 8.69717e-16 1)
(0.690313 -0.723511 0)
(9.60139e-16 -1.00631e-15 1)
(0.714356 -0.699783 0)
(9.93478e-16 -9.73211e-16 1)
(0.737583 -0.675256 0)
(1.02566e-15 -9.38993e-16 1)
(0.759965 -0.649964 0)
(1.05664e-15 -9.03702e-16 1)
(0.781486 -0.623923 0)
(1.08641e-15 -8.67368e-16 1)
(0.802112 -0.597173 0)
(-1.1567e-15 -2.0196e-15 1)
(0.821824 -0.569741 0)
(0 0 1)
(0.840598 -0.54166 0)
(0 0 1)
(0.858411 -0.512963 0)
(0 0 1)
(0.875249 -0.483673 0)
(0 0 1)
(0.891083 -0.45384 0)
(2.19958e-15 1.47285e-15 1)
(0.905903 -0.423484 0)
(0 0 1)
(0.919689 -0.392647 0)
(0 0 1)
(0.932426 -0.361361 0)
(-0 0 1)
(0.944097 -0.329667 0)
(-0 0 1)
(0.954695 -0.297587 0)
(-0 0 1)
(0.9642 -0.265176 0)
(-0 0 1)
(0.972606 -0.232459 0)
(-0 0 1)
(0.979902 -0.199479 0)
(1.36174e-15 -2.7721e-16 1)
(0.986081 -0.166268 0)
(7.19157e-16 -2.46457e-15 1)
(0.991134 -0.132869 0)
(-0 0 1)
(0.995056 -0.0993181 0)
(-0 0 1)
(0.997842 -0.065657 0)
(-0 0 1)
(0.999491 -0.0319167 0)
(-0 0 1)
(0.999998 0.00185585 0)
(-0 0 1)
(0.999365 0.0356334 0)
(4.06132e-16 2.32664e-15 1)
(0.997591 0.0693637 0)
(1.38773e-15 9.64907e-17 1)
(0.994679 0.10302 0)
(1.38377e-15 1.43318e-16 1)
(0.990633 0.136552 0)
(2.47985e-15 -1.99071e-15 1)
(0.985455 0.169934 0)
(-0 0 1)
(0.979155 0.203117 0)
(-0 0 1)
(0.971735 0.236073 0)
(-0 0 1)
(0.963208 0.268757 0)
(-0 0 1)
(0.953581 0.301137 0)
(-0 0 1)
(0.942867 0.333171 0)
(0 0 1)
(0.931077 0.364824 0)
(0 0 1)
(0.918223 0.396064 0)
(1.37732e-15 -1.9224e-15 1)
(0.904322 0.42685 0)
(0 0 1)
(0.889391 0.457146 0)
(0 0 1)
(0.873443 0.486927 0)
(0 0 1)
(0.8565 0.516147 0)
(0 0 1)
(0.838578 0.544782 0)
(0 0 1)
(0.8197 0.572793 0)
(0 0 1)
(0.799887 0.60015 0)
(0 0 1)
(0.779162 0.626823 0)
(1.61432e-15 -1.66692e-15 1)
(0.757547 0.652781 0)
(0 0 1)
(0.735066 0.677996 0)
(0 0 1)
(0.711748 0.702434 0)
(0 0 1)
(0.687619 0.726071 0)
(0 0 1)
(0.662703 0.748882 0)
(0 0 1)
(0.637034 0.770836 0)
(0 0 1)
(0.610636 0.791912 0)
(0 0 1)
(0.583541 0.812084 0)
(5.2352e-15 -6.34021e-16 1)
(0.555779 0.83133 0)
(0 0 1)
(0.527385 0.849627 0)
(7.32718e-16 1.18042e-15 1)
(0.498391 0.866952 0)
(2.58248e-15 -1.44087e-16 1)
(0.468826 0.883291 0)
(0 0 1)
(0.438725 0.898621 0)
(0 0 1)
(0.408122 0.912927 0)
(0 -0 1)
(0.377059 0.926189 0)
(0 -0 1)
(0.345564 0.938395 0)
(0 -0 1)
(0.313669 0.949532 0)