/*--------------------------------*- C++ -*----------------------------------*\
  =========                 |
  \\      /  F ield         | OpenFOAM: The Open Source CFD Toolbox
   \\    /   O peration     | Website:  https://openfoam.org
    \\  /    A nd           | Version:  9
     \\/     M anipulation  |
\*---------------------------------------------------------------------------*/
FoamFile
{
    format      ascii;
    class       extendedFeatureEdgeMesh;
    location    "constant/extendedFeatureEdgeMesh";
    object      HOLDER.extendedFeatureEdgeMesh;
}
// * * * * * * * * * * * * * * * * * * * * * * * * * * * * * * * * * * * * * //

// points

134
(
(-0.00495759 -0.000649844 0.209903)
(-0.00499666 -0.000182753 0.209903)
(-0.00487495 -0.00111122 0.209903)
(-0.00474948 -0.00156284 0.209903)
(-0.00458226 -0.00200072 0.209903)
(-0.00437478 -0.00242102 0.209903)
(-0.00412884 -0.00282004 0.209903)
(-0.00384663 -0.00319428 0.209903)
(-0.00353061 -0.00354045 0.209903)
(-0.00318356 -0.00385551 0.209903)
(-0.00280854 -0.00413668 0.209903)
(-0.00240884 -0.0043815 0.209903)
(-0.00198796 -0.00458781 0.209903)
(-0.00154962 -0.00475381 0.209903)
(-0.00109765 -0.00487803 0.209903)
(-0.000636044 -0.00495938 0.209903)
(-0.000168845 -0.00499715 0.209903)
(0.000299837 -0.004991 0.209903)
(0.000765884 -0.00494099 0.209903)
(0.0012252 -0.00484757 0.209903)
(0.00167375 -0.00471153 0.209903)
(0.00210759 -0.0045341 0.209903)
(0.00252291 -0.00431682 0.209903)
(0.00291606 -0.0040616 0.209903)
(0.00328358 -0.00377069 0.209903)
(0.00362224 -0.00344664 0.209903)
(0.00392908 -0.00309231 0.209903)
(0.00420138 -0.00271079 0.209903)
(0.00443676 -0.00230546 0.209903)
(0.00463315 -0.00187986 0.209903)
(0.00478883 -0.00143775 0.209903)
(0.00490242 -0.000982998 0.209903)
(0.00497293 -0.000519608 0.209903)
(0.00499973 -5.1653e-05 0.209903)
(0.0049826 0.000416756 0.209903)
(0.00492168 0.000881503 0.209903)
(0.00481751 0.0013385 0.209903)
(0.004671 0.00178374 0.209903)
(0.00448345 0.0022133 0.209903)
(0.00425649 0.00262341 0.209903)
(0.00399212 0.00301047 0.209903)
(0.00369268 0.00337107 0.209903)
(0.00336078 0.00370205 0.209903)
(0.00299935 0.00400049 0.209903)
(0.00261156 0.00426377 0.209903)
(0.00220082 0.00448959 0.209903)
(0.00177073 0.00467595 0.209903)
(0.00132509 0.00482122 0.209903)
(0.000867802 0.00492412 0.209903)
(0.000402887 0.00498374 0.209903)
(-6.55678e-05 0.00499957 0.209903)
(-0.000533447 0.00497146 0.209903)
(-0.000996638 0.00489966 0.209903)
(-0.00145107 0.00478481 0.209903)
(-0.00189275 0.0046279 0.209903)
(-0.0023178 0.00443033 0.209903)
(-0.00272248 0.00419382 0.209903)
(-0.00310323 0.00392045 0.209903)
(-0.00345671 0.00361264 0.209903)
(-0.00377982 0.00327307 0.209903)
(-0.0040697 0.00290474 0.209903)
(-0.00432382 0.00251089 0.209903)
(-0.00453995 0.00209496 0.209903)
(-0.00471618 0.00166063 0.209903)
(-0.00485096 0.00121171 0.209903)
(-0.00494311 0.00075213 0.209903)
(-0.00499182 0.000285945 0.209903)
(-0.00495759 -0.000649844 0.099903)
(-0.00487495 -0.00111122 0.099903)
(-0.00499666 -0.000182753 0.099903)
(-0.00499182 0.000285945 0.099903)
(-0.00494311 0.00075213 0.099903)
(-0.00485096 0.00121171 0.099903)
(-0.00471618 0.00166063 0.099903)
(-0.00453995 0.00209496 0.099903)
(-0.00432382 0.00251089 0.099903)
(-0.0040697 0.00290474 0.099903)
(-0.00377982 0.00327307 0.099903)
(-0.00345671 0.00361264 0.099903)
(-0.00310323 0.00392045 0.099903)
(-0.00272248 0.00419382 0.099903)
(-0.0023178 0.00443033 0.099903)
(-0.00189275 0.0046279 0.099903)
(-0.00145107 0.00478481 0.099903)
(-0.000996638 0.00489966 0.099903)
(-0.000533447 0.00497146 0.099903)
(-6.55678e-05 0.00499957 0.099903)
(0.000402887 0.00498374 0.099903)
(0.000867802 0.00492412 0.099903)
(0.00132509 0.00482122 0.099903)
(0.00177073 0.00467595 0.099903)
(0.00220082 0.00448959 0.099903)
(0.00261156 0.00426377 0.099903)
(0.00299935 0.00400049 0.099903)
(0.00336078 0.00370205 0.099903)
(0.00369268 0.00337107 0.099903)
(0.00399212 0.00301047 0.099903)
(0.00425649 0.00262341 0.099903)
(0.00448345 0.0022133 0.099903)
(0.004671 0.00178374 0.099903)
(0.00481751 0.0013385 0.099903)
(0.00492168 0.000881503 0.099903)
(0.0049826 0.000416756 0.099903)
(0.00499973 -5.1653e-05 0.099903)
(0.00497293 -0.000519608 0.099903)
(0.00490242 -0.000982998 0.099903)
(0.00478883 -0.00143775 0.099903)
(0.00463315 -0.00187986 0.099903)
(0.00443676 -0.00230546 0.099903)
(0.00420138 -0.00271079 0.099903)
(0.00392908 -0.00309231 0.099903)
(0.00362224 -0.00344664 0.099903)
(0.00328358 -0.00377069 0.099903)
(0.00291606 -0.0040616 0.099903)
(0.00252291 -0.00431682 0.099903)
(0.00210759 -0.0045341 0.099903)
(0.00167375 -0.00471153 0.099903)
(0.0012252 -0.00484757 0.099903)
(0.000765884 -0.00494099 0.099903)
(0.000299837 -0.004991 0.099903)
(-0.000168845 -0.00499715 0.099903)
(-0.000636044 -0.00495938 0.099903)
(-0.00109765 -0.00487803 0.099903)
(-0.00154962 -0.00475381 0.099903)
(-0.00198796 -0.00458781 0.099903)
(-0.00240884 -0.0043815 0.099903)
(-0.00280854 -0.00413668 0.099903)
(-0.00318356 -0.00385551 0.099903)
(-0.00353061 -0.00354045 0.099903)
(-0.00384663 -0.00319428 0.099903)
(-0.00412884 -0.00282004 0.099903)
(-0.00437478 -0.00242102 0.099903)
(-0.00458226 -0.00200072 0.099903)
(-0.00474948 -0.00156284 0.099903)
)

// edges

134
(
(0 1)
(2 0)
(3 2)
(4 3)
(5 4)
(6 5)
(7 6)
(8 7)
(9 8)
(10 9)
(11 10)
(12 11)
(13 12)
(14 13)
(15 14)
(16 15)
(17 16)
(18 17)
(19 18)
(20 19)
(21 20)
(22 21)
(23 22)
(24 23)
(25 24)
(26 25)
(27 26)
(28 27)
(29 28)
(30 29)
(31 30)
(32 31)
(33 32)
(34 33)
(35 34)
(36 35)
(37 36)
(38 37)
(39 38)
(40 39)
(41 40)
(42 41)
(43 42)
(44 43)
(45 44)
(46 45)
(47 46)
(48 47)
(49 48)
(50 49)
(51 50)
(52 51)
(53 52)
(54 53)
(55 54)
(56 55)
(57 56)
(58 57)
(59 58)
(60 59)
(61 60)
(62 61)
(63 62)
(64 63)
(65 64)
(66 65)
(1 66)
(67 68)
(69 67)
(70 69)
(71 70)
(72 71)
(73 72)
(74 73)
(75 74)
(76 75)
(77 76)
(78 77)
(79 78)
(80 79)
(81 80)
(82 81)
(83 82)
(84 83)
(85 84)
(86 85)
(87 86)
(88 87)
(89 88)
(90 89)
(91 90)
(92 91)
(93 92)
(94 93)
(95 94)
(96 95)
(97 96)
(98 97)
(99 98)
(100 99)
(101 100)
(102 101)
(103 102)
(104 103)
(105 104)
(106 105)
(107 106)
(108 107)
(109 108)
(110 109)
(111 110)
(112 111)
(113 112)
(114 113)
(115 114)
(116 115)
(117 116)
(118 117)
(119 118)
(120 119)
(121 120)
(122 121)
(123 122)
(124 123)
(125 124)
(126 125)
(127 126)
(128 127)
(129 128)
(130 129)
(131 130)
(132 131)
(133 132)
(68 133)
)

// concaveStart mixedStart nonFeatureStart
0 0 0
// internalStart flatStart openStart multipleStart
134 134 134 134
// normals

264
(
(-0.99652 -0.083352 0.000549576)
(-0 -0 1)
(-0.984336 -0.1763 0.000549634)
(-0.963502 -0.2677 0.000549616)
(0 0 1)
(-0.934201 -0.356748 0.000549576)
(0 0 1)
(-0.896689 -0.44266 0.000549511)
(0 0 1)
(-0.851297 -0.524684 0.00054956)
(0 0 1)
(-0.798425 -0.602094 0.000549531)
(0 0 1)
(-0.738536 -0.674214 0.00054954)
(0 0 1)
(-0.672156 -0.74041 0.000549565)
(0 0 1)
(-0.59987 -0.800097 0.000549568)
(0 0 1)
(-0.522312 -0.852754 0.000549583)
(0 0 1)
(-0.440162 -0.897918 0.000549584)
(0 0 1)
(-0.354148 -0.935189 0.000549558)
(0 0 1)
(-0.265018 -0.964243 0.000549575)
(0 0 1)
(-0.173561 -0.984823 0.000549577)
(0 0 1)
(-0.0805773 -0.996748 0.000549567)
(0 0 1)
(0.0131128 -0.999914 0.00054955)
(0 0 1)
(0.10669 -0.994292 0.000549521)
(0 0 1)
(0.199327 -0.979933 0.000549542)
(0 0 1)
(0.290215 -0.956961 0.00054955)
(0 0 1)
(0.37855 -0.925581 0.000549527)
(0 0 1)
(0.46356 -0.886065 0.00054956)
(0 0 1)
(0.544496 -0.838764 0.00054958)
(0 0 1)
(0.620645 -0.784091 0.000549527)
(0 0 1)
(0.691342 -0.722527 0.00054959)
(0 0 1)
(0.755962 -0.654615 0.000549552)
(0 0 1)
(0.813941 -0.580948 0.000549579)
(0 0 1)
(0.864765 -0.502177 0.000549573)
(0 0 1)
(0.907989 -0.418994 0.000549563)
(0 0 1)
(0.943235 -0.332126 0.000549563)
(0 0 1)
(0.970191 -0.24234 0.000549595)
(0 0 1)
(0.988621 -0.150425 0.000549541)
(0 0 1)
(0.998363 -0.05719 0.000549588)
(0 0 1)
(0.999332 0.0365507 0.000549545)
(0 0 1)
(0.991518 0.129968 0.000549485)
(0.974991 0.222245 0.000549487)
(0 0 1)
(0.949895 0.312568 0.00054951)
(0 0 1)
(0.916452 0.400145 0.000549567)
(0 0 1)
(0.874955 0.484203 0.000549591)
(0 0 1)
(0.825768 0.564009 0.00054954)
(0 0 1)
(0.769326 0.638856 0.000549576)
(0 0 1)
(0.706122 0.70809 0.000549564)
(0 0 1)
(0.636713 0.771101 0.000549531)
(0 0 1)
(0.561709 0.827335 0.000549531)
(0 0 1)
(0.481766 0.8763 0.00054955)
(0 0 1)
(0.397591 0.917562 0.000549501)
(0 0 1)
(0.309924 0.950761 0.000549564)
(0 0 1)
(0.219531 0.975605 0.00054952)
(0 0 1)
(0.127209 0.991876 0.000549544)
(0 0 1)
(0.033769 0.99943 0.000549537)
(0 0 1)
(-0.0599677 0.9982 0.000549584)
(-0 0 1)
(-0.153176 0.988199 0.000549562)
(-0 0 1)
(-0.24504 0.969513 0.000549582)
(-0 0 1)
(-0.334751 0.942307 0.000549559)
(-0 0 1)
(-0.421518 0.90682 0.000549574)
(-0 0 1)
(-0.504582 0.863364 0.000549534)
(-0 0 1)
(-0.583212 0.81232 0.000549542)
(-0 0 1)
(-0.656715 0.754139 0.000549562)
(-0 0 1)
(-0.724449 0.689328 0.000549527)
(-0 0 1)
(-0.785815 0.618462 0.00054956)
(-0 0 1)
(-0.840276 0.542158 0.000549522)
(-0 0 1)
(-0.887352 0.461092 0.000549529)
(-0 0 1)
(-0.92663 0.375973 0.000549556)
(-0 0 1)
(-0.957766 0.28755 0.000549538)
(-0 0 1)
(-0.980484 0.196597 0.000549539)
(-0 0 1)
(-0.994585 0.103923 0.000549521)
(-0 0 1)
(-0.999946 0.0103301 0.000549556)
(-0 0 1)
(-0.984336 -0.1763 -0.000549635)
(0 0 -1)
(-0.99652 -0.083352 -0.000549576)
(-0.999946 0.0103301 -0.000549556)
(0 0 -1)
(-0.994585 0.103923 -0.000549522)
(0 0 -1)
(-0.980484 0.196597 -0.000549539)
(0 0 -1)
(-0.957766 0.28755 -0.000549538)
(0 0 -1)
(-0.92663 0.375973 -0.000549557)
(0 0 -1)
(-0.887352 0.461092 -0.00054953)
(0 0 -1)
(-0.840276 0.542158 -0.000549522)
(0 0 -1)
(-0.785815 0.618462 -0.000549561)
(0 0 -1)
(-0.724449 0.689328 -0.000549527)
(0 0 -1)
(-0.656715 0.754139 -0.000549562)
(0 0 -1)
(-0.583212 0.81232 -0.000549542)
(0 0 -1)
(-0.504582 0.863364 -0.000549535)
(0 0 -1)
(-0.421518 0.90682 -0.000549575)
(0 0 -1)
(-0.334751 0.942307 -0.000549559)
(0 0 -1)
(-0.24504 0.969513 -0.000549582)
(0 0 -1)
(-0.153176 0.988199 -0.000549562)
(0 0 -1)
(-0.0599677 0.9982 -0.000549585)
(0 0 -1)
(0.033769 0.99943 -0.000549538)
(0 0 -1)
(0.127209 0.991876 -0.000549544)
(0 0 -1)
(0.219531 0.975605 -0.000549521)
(0 0 -1)
(0.309924 0.950761 -0.000549564)
(0 0 -1)
(0.397591 0.917562 -0.000549502)
(0 0 -1)
(0.481766 0.8763 -0.00054955)
(0 0 -1)
(0.561709 0.827335 -0.000549532)
(0 0 -1)
(0.636713 0.771101 -0.000549531)
(0 0 -1)
(0.706122 0.70809 -0.000549564)
(0 0 -1)
(0.769326 0.638856 -0.000549577)
(0 0 -1)
(0.825768 0.564009 -0.000549541)
(0 0 -1)
(0.874955 0.484203 -0.000549591)
(0 0 -1)
(0.916452 0.400145 -0.000549568)
(0 0 -1)
(0.949895 0.312568 -0.00054951)
(0 0 -1)
(0.974991 0.222245 -0.000549487)
(0 0 -1)
(0.991518 0.129968 -0.000549485)
(0.999332 0.0365507 -0.000549545)
(0 0 -1)
(0.998363 -0.05719 -0.000549588)
(0 0 -1)
(0.988621 -0.150425 -0.000549541)
(0 0 -1)
(0.970191 -0.24234 -0.000549596)
(0 0 -1)
(0.943235 -0.332126 -0.000549563)
(0 0 -1)
(0.907989 -0.418994 -0.000549563)
(0 0 -1)
(0.864765 -0.502177 -0.000549573)
(0 0 -1)
(0.813941 -0.580948 -0.00054958)
(0 0 -1)
(0.755962 -0.654615 -0.000549552)
(0 0 -1)
(0.691342 -0.722527 -0.00054959)
(0 0 -1)
(0.620645 -0.784091 -0.000549527)
(0 0 -1)
(0.544496 -0.838764 -0.00054958)
(0 0 -1)
(0.46356 -0.886065 -0.000549561)
(0 0 -1)
(0.37855 -0.925581 -0.000549527)
(0 0 -1)
(0.290215 -0.956961 -0.00054955)
(0 0 -1)
(0.199327 -0.979933 -0.000549542)
(0 0 -1)
(0.10669 -0.994292 -0.000549521)
(0 0 -1)
(0.0131128 -0.999914 -0.000549551)
(0 0 -1)
(-0.0805773 -0.996748 -0.000549568)
(0 0 -1)
(-0.173561 -0.984823 -0.000549577)
(0 0 -1)
(-0.265018 -0.964243 -0.000549575)
(0 0 -1)
(-0.354148 -0.935189 -0.000549558)
(0 0 -1)
(-0.440162 -0.897918 -0.000549584)
(0 0 -1)
(-0.522312 -0.852754 -0.000549583)
(0 0 -1)
(-0.59987 -0.800097 -0.000549569)
(0 0 -1)
(-0.672156 -0.74041 -0.000549566)
(0 0 -1)
(-0.738536 -0.674214 -0.00054954)
(0 0 -1)
(-0.798425 -0.602094 -0.000549531)
(0 0 -1)
(-0.851297 -0.524684 -0.000549561)
(0 0 -1)
(-0.896689 -0.44266 -0.000549511)
(0 0 -1)
(-0.934201 -0.356748 -0.000549577)
(0 0 -1)
(-0.963502 -0.2677 -0.000549616)
(0 0 -1)
)

// normal volume types

264
(
0
0
0
0
0
0
0
0
0
0
0
0
0
0
0
0
0
0
0
0
0
0
0
0
0
0
0
0
0
0
0
0
0
0
0
0
0
0
0
0
0
0
0
0
0
0
0
0
0
0
0
0
0
0
0
0
0
0
0
0
0
0
0
0
0
0
0
0
0
0
0
0
0
0
0
0
0
0
0
0
0
0
0
0
0
0
0
0
0
0
0
0
0
0
0
0
0
0
0
0
0
0
0
0
0
0
0
0
0
0
0
0
0
0
0
0
0
0
0
0
0
0
0
0
0
0
0
0
0
0
0
0
0
0
0
0
0
0
0
0
0
0
0
0
0
0
0
0
0
0
0
0
0
0
0
0
0
0
0
0
0
0
0
0
0
0
0
0
0
0
0
0
0
0
0
0
0
0
0
0
0
0
0
0
0
0
0
0
0
0
0
0
0
0
0
0
0
0
0
0
0
0
0
0
0
0
0
0
0
0
0
0
0
0
0
0
0
0
0
0
0
0
0
0
0
0
0
0
0
0
0
0
0
0
0
0
0
0
0
0
0
0
0
0
0
0
0
0
0
0
0
0
0
0
0
0
0
0
0
0
0
0
0
0
)

// normalDirections

134
(
2(1 -1)
2(1 -1)
2(1 -1)
2(1 -1)
2(1 -1)
2(1 -1)
2(1 -1)
2(1 -1)
2(1 -1)
2(1 -1)
2(1 -1)
2(1 -1)
2(1 -1)
2(1 -1)
2(1 -1)
2(1 -1)
2(1 -1)
2(1 -1)
2(1 -1)
2(1 -1)
2(1 -1)
2(1 -1)
2(1 -1)
2(1 -1)
2(1 -1)
2(1 -1)
2(1 -1)
2(1 -1)
2(1 -1)
2(1 -1)
2(1 -1)
2(1 -1)
2(1 -1)
2(1 -1)
2(1 -1)
2(1 -1)
2(1 -1)
2(1 -1)
2(1 -1)
2(1 -1)
2(1 -1)
2(1 -1)
2(1 -1)
2(1 -1)
2(1 -1)
2(1 -1)
2(1 -1)
2(1 -1)
2(1 -1)
2(1 -1)
2(1 -1)
2(1 -1)
2(1 -1)
2(1 -1)
2(1 -1)
2(1 -1)
2(1 -1)
2(1 -1)
2(1 -1)
2(1 -1)
2(1 -1)
2(1 -1)
2(1 -1)
2(1 -1)
2(1 -1)
2(1 -1)
2(1 -1)
2(1 -1)
2(1 -1)
2(1 -1)
2(1 -1)
2(1 -1)
2(1 -1)
2(1 -1)
2(1 -1)
2(1 -1)
2(1 -1)
2(1 -1)
2(1 -1)
2(1 -1)
2(1 -1)
2(1 -1)
2(1 -1)
2(1 -1)
2(1 -1)
2(1 -1)
2(1 -1)
2(1 -1)
2(1 -1)
2(1 -1)
2(1 -1)
2(1 -1)
2(1 -1)
2(1 -1)
2(1 -1)
2(1 -1)
2(1 -1)
2(1 -1)
2(1 -1)
2(1 -1)
2(1 -1)
2(1 -1)
2(1 -1)
2(1 -1)
2(1 -1)
2(1 -1)
2(1 -1)
2(1 -1)
2(1 -1)
2(1 -1)
2(1 -1)
2(1 -1)
2(1 -1)
2(1 -1)
2(1 -1)
2(1 -1)
2(1 -1)
2(1 -1)
2(1 -1)
2(1 -1)
2(1 -1)
2(1 -1)
2(1 -1)
2(1 -1)
2(1 -1)
2(1 -1)
2(1 -1)
2(1 -1)
2(1 -1)
2(1 -1)
2(1 -1)
2(1 -1)
2(1 -1)
2(1 -1)
)

// edgeNormals

134
(
2(0 1)
2(2 1)
2(3 4)
2(5 6)
2(7 8)
2(9 10)
2(11 12)
2(13 14)
2(15 16)
2(17 18)
2(19 20)
2(21 22)
2(23 24)
2(25 26)
2(27 28)
2(29 30)
2(31 32)
2(33 34)
2(35 36)
2(37 38)
2(39 40)
2(41 42)
2(43 44)
2(45 46)
2(47 48)
2(49 50)
2(51 52)
2(53 54)
2(55 56)
2(57 58)
2(59 60)
2(61 62)
2(63 64)
2(65 66)
2(67 66)
2(68 69)
2(70 71)
2(72 73)
2(74 75)
2(76 77)
2(78 79)
2(80 81)
2(82 83)
2(84 85)
2(86 87)
2(88 89)
2(90 91)
2(92 93)
2(94 95)
2(96 97)
2(98 99)
2(100 101)
2(102 103)
2(104 105)
2(106 107)
2(108 109)
2(110 111)
2(112 113)
2(114 115)
2(116 117)
2(118 119)
2(120 121)
2(122 123)
2(124 125)
2(126 127)
2(128 129)
2(130 131)
2(132 133)
2(134 133)
2(135 136)
2(137 138)
2(139 140)
2(141 142)
2(143 144)
2(145 146)
2(147 148)
2(149 150)
2(151 152)
2(153 154)
2(155 156)
2(157 158)
2(159 160)
2(161 162)
2(163 164)
2(165 166)
2(167 168)
2(169 170)
2(171 172)
2(173 174)
2(175 176)
2(177 178)
2(179 180)
2(181 182)
2(183 184)
2(185 186)
2(187 188)
2(189 190)
2(191 192)
2(193 194)
2(195 196)
2(197 198)
2(199 198)
2(200 201)
2(202 203)
2(204 205)
2(206 207)
2(208 209)
2(210 211)
2(212 213)
2(214 215)
2(216 217)
2(218 219)
2(220 221)
2(222 223)
2(224 225)
2(226 227)
2(228 229)
2(230 231)
2(232 233)
2(234 235)
2(236 237)
2(238 239)
2(240 241)
2(242 243)
2(244 245)
2(246 247)
2(248 249)
2(250 251)
2(252 253)
2(254 255)
2(256 257)
2(258 259)
2(260 261)
2(262 263)
)

// featurePointNormals
0()
// featurePointEdges
0()
// regionEdges
0()


// ************************************************************************* //
