/*--------------------------------*- C++ -*----------------------------------*\
  =========                 |
  \\      /  F ield         | OpenFOAM: The Open Source CFD Toolbox
   \\    /   O peration     | Website:  https://openfoam.org
    \\  /    A nd           | Version:  9
     \\/     M anipulation  |
\*---------------------------------------------------------------------------*/
FoamFile
{
    format      ascii;
    class       extendedFeatureEdgeMesh;
    location    "constant/extendedFeatureEdgeMesh";
    object      STIRRER.extendedFeatureEdgeMesh;
}
// * * * * * * * * * * * * * * * * * * * * * * * * * * * * * * * * * * * * * //

// points

1522
(
(-0.00972328 0.0200606 0.0780361)
(-0.0100227 0.0186785 0.0794503)
(-0.0168539 -0.0128564 0.0443556)
(-0.0171533 -0.0142385 0.0457699)
(0.0209076 -0.00773597 0.0457699)
(0.0195609 -0.00816775 0.0443556)
(-0.0111647 -0.0180191 0.0794503)
(-0.0125114 -0.0184509 0.0780361)
(-0.00375424 0.0219745 0.0457699)
(-0.00270696 0.0210241 0.0443556)
(0.0211874 -0.000659343 0.0794503)
(0.0222347 -0.00160972 0.0780361)
(0.00463492 -0.00187551 0.057903)
(-0.0039417 -0.0030762 0.057903)
(0.00499556 -0.000210694 0.065903)
(-0.00268025 -0.00422093 0.065903)
(-0.00231531 0.00443163 0.065903)
(-0.000693221 0.00495171 0.057903)
(5.98531e-05 0.00499964 -0.00348581)
(-0.00295586 0.00403273 -0.00348581)
(-0.00429989 0.00255166 -0.00348581)
(-0.00497037 -0.000543484 -0.00348581)
(-0.00435974 -0.00244799 -0.00348581)
(-0.00201452 -0.00457621 -0.00348581)
(-5.98531e-05 -0.00499964 -0.00348581)
(0.00295586 -0.00403273 -0.00348581)
(0.00429989 -0.00255166 -0.00348581)
(0.00497037 0.000543484 -0.00348581)
(0.00435974 0.00244799 -0.00348581)
(0.00201452 0.00457621 -0.00348581)
(5.98531e-05 0.00499964 -0.00537476)
(0.00201452 0.00457621 -0.00537476)
(0.00435974 0.00244799 -0.00537476)
(0.00497037 0.000543484 -0.00537476)
(0.00429989 -0.00255166 -0.00537476)
(0.00295586 -0.00403273 -0.00537476)
(-5.98531e-05 -0.00499964 -0.00537476)
(-0.00201452 -0.00457621 -0.00537476)
(-0.00435974 -0.00244799 -0.00537476)
(-0.00497037 -0.000543484 -0.00537476)
(-0.00429989 0.00255166 -0.00537476)
(-0.00295586 0.00403273 -0.00537476)
(0.0067646 -0.003365 0.057903)
(0.00632912 -0.00200678 0.057903)
(-0.00629648 -0.00417582 0.057903)
(-0.00490248 -0.00447779 0.057903)
(0.00755072 0.000263942 0.065903)
(-0.00354678 -0.00667109 0.065903)
(0.00659221 -0.000792305 0.065903)
(-0.00398226 -0.00531287 0.065903)
(-0.00400394 0.00640715 0.065903)
(-0.00260995 0.00610517 0.065903)
(-0.00142664 0.00648457 0.057903)
(-0.000468127 0.00754082 0.057903)
(-0.00265997 0.00423374 0.0668918)
(-0.00417356 -0.00275343 0.0569142)
(0.00447132 -0.0022377 0.0569142)
(-0.00233655 -0.00442047 0.0668918)
(-0.000297759 0.00499113 0.0569142)
(5.98531e-05 0.00499964 -0.00260159)
(0.00201452 0.00457621 -0.00260159)
(-0.00295586 0.00403273 -0.00260159)
(-0.00429989 0.00255166 -0.00260159)
(-0.00497037 -0.000543484 -0.00260159)
(-0.00435974 -0.00244799 -0.00260159)
(-0.00201452 -0.00457621 -0.00260159)
(-5.98531e-05 -0.00499964 -0.00260159)
(0.00295586 -0.00403273 -0.00260159)
(0.00429989 -0.00255166 -0.00260159)
(0.00497037 0.000543484 -0.00260159)
(0.00435974 0.00244799 -0.00260159)
(0.00499651 0.000186727 0.0668918)
(5.98531e-05 0.00499964 -0.00625898)
(0.00201452 0.00457621 -0.00625898)
(0.00269332 0.00770976 -0.00537476)
(0.00269332 0.00770976 -0.00348581)
(0.000738659 0.00813319 -0.00537476)
(0.000738659 0.00813319 -0.00348581)
(0.00435974 0.00244799 -0.00625898)
(0.00497037 0.000543484 -0.00625898)
(0.00802351 0.0015224 -0.00537476)
(0.00802351 0.0015224 -0.00348581)
(0.00741288 0.0034269 -0.00537476)
(0.00741288 0.0034269 -0.00348581)
(0.00429989 -0.00255166 -0.00625898)
(0.00295586 -0.00403273 -0.00625898)
(0.00533019 -0.00618737 -0.00537476)
(0.00533019 -0.00618737 -0.00348581)
(0.00667422 -0.00470629 -0.00537476)
(0.00667422 -0.00470629 -0.00348581)
(-5.98531e-05 -0.00499964 -0.00625898)
(-0.00201452 -0.00457621 -0.00625898)
(-0.00269332 -0.00770976 -0.00537476)
(-0.00269332 -0.00770976 -0.00348581)
(-0.000738659 -0.00813319 -0.00537476)
(-0.000738659 -0.00813319 -0.00348581)
(-0.00435974 -0.00244799 -0.00625898)
(-0.00497037 -0.000543484 -0.00625898)
(-0.00802351 -0.0015224 -0.00537476)
(-0.00802351 -0.0015224 -0.00348581)
(-0.00741288 -0.0034269 -0.00537476)
(-0.00741288 -0.0034269 -0.00348581)
(-0.00429989 0.00255166 -0.00625898)
(-0.00295586 0.00403273 -0.00625898)
(-0.00667422 0.00470629 -0.00537476)
(-0.00667422 0.00470629 -0.00348581)
(-0.00533019 0.00618737 -0.00348581)
(-0.00533019 0.00618737 -0.00537476)
(0.00701816 -0.00279794 0.057903)
(0.00722428 -0.00221197 0.057903)
(0.00738157 -0.00161105 0.057903)
(0.00748896 -0.000999236 0.057903)
(0.00754574 -0.00038067 0.057903)
(0.00755151 0.000240469 0.057903)
(0.00750623 0.000859983 0.057903)
(0.00741022 0.00147368 0.057903)
(0.00726411 0.00207742 0.057903)
(0.00706891 0.00266712 0.057903)
(0.00682593 0.00323879 0.057903)
(0.00653681 0.00378857 0.057903)
(0.0062035 0.00431274 0.057903)
(0.00582826 0.00480775 0.057903)
(0.00541362 0.00527027 0.057903)
(0.00496239 0.00569717 0.057903)
(0.00447762 0.00608556 0.057903)
(0.00396258 0.00643281 0.057903)
(0.00342076 0.00673658 0.057903)
(0.00285582 0.00699481 0.057903)
(-0.00593217 -0.00467894 0.057903)
(-0.00552776 -0.00515043 0.057903)
(-0.00508599 -0.0055871 0.057903)
(-0.00460985 -0.00598601 0.057903)
(-0.00410254 -0.00634447 0.057903)
(-0.0035675 -0.00666003 0.057903)
(-0.00300835 -0.00693058 0.057903)
(-0.00242886 -0.00715428 0.057903)
(-0.00183296 -0.00732962 0.057903)
(-0.00122466 -0.00745542 0.057903)
(-0.000608089 -0.00753082 0.057903)
(1.25932e-05 -0.00755532 0.057903)
(0.000633191 -0.00752875 0.057903)
(0.00124951 -0.00745129 0.057903)
(0.00185738 -0.00732347 0.057903)
(0.0024527 -0.00714614 0.057903)
(0.00303143 -0.00692051 0.057903)
(0.00358968 -0.0066481 0.057903)
(0.00412366 -0.00633075 0.057903)
(0.00462977 -0.00597061 0.057903)
(0.000326304 -0.00754828 0.065903)
(-0.000294861 -0.00754958 0.065903)
(0.000945262 -0.00749597 0.065903)
(0.00155783 -0.00739298 0.065903)
(0.00215987 -0.00724003 0.065903)
(0.00274731 -0.00703814 0.065903)
(0.00331618 -0.00678867 0.065903)
(0.00386264 -0.00649331 0.065903)
(0.00438298 -0.00615407 0.065903)
(0.0048737 -0.00577322 0.065903)
(0.00533148 -0.00535335 0.065903)
(0.00575322 -0.0048973 0.065903)
(0.00613607 -0.00440815 0.065903)
(0.00647744 -0.00388919 0.065903)
(0.00677503 -0.00334395 0.065903)
(0.00702683 -0.00277611 0.065903)
(0.00723112 -0.0021895 0.065903)
(0.00738654 -0.00158809 0.065903)
(0.00749203 -0.000975952 0.065903)
(0.00754688 -0.000357212 0.065903)
(-0.00670016 0.00349156 0.065903)
(-0.00639069 0.00403015 0.065903)
(-0.00696433 0.00292936 0.065903)
(-0.00718143 0.00234737 0.065903)
(-0.00734999 0.00174951 0.065903)
(-0.00746886 0.00113982 0.065903)
(-0.00753725 0.000522436 0.065903)
(-0.00755469 -9.84855e-05 0.065903)
(-0.00752107 -0.000718741 0.065903)
(-0.00743661 -0.00133414 0.065903)
(-0.00730188 -0.00194052 0.065903)
(-0.0071178 -0.00253378 0.065903)
(-0.0068856 -0.00310991 0.065903)
(-0.00660686 -0.00366503 0.065903)
(-0.00628346 -0.00419537 0.065903)
(-0.00591759 -0.00469735 0.065903)
(-0.00551173 -0.00516758 0.065903)
(-0.0050686 -0.00560289 0.065903)
(-0.00459122 -0.00600032 0.065903)
(-0.0040828 -0.00635719 0.065903)
(-0.00346409 0.0067144 0.065903)
(-0.00290082 0.00697627 0.065903)
(-0.00231794 0.00719098 0.065903)
(-0.0017194 0.00735709 0.065903)
(-0.00110923 0.00747346 0.065903)
(-0.000491565 0.00753932 0.065903)
(0.000129422 0.00755423 0.065903)
(0.000749535 0.00751806 0.065903)
(0.00136458 0.00743108 0.065903)
(0.0019704 0.00729387 0.065903)
(0.00256291 0.00710736 0.065903)
(0.00313809 0.00687281 0.065903)
(0.00369205 0.0065918 0.065903)
(0.00422107 0.00626623 0.065903)
(0.00472155 0.00589831 0.065903)
(0.00519011 0.00549052 0.065903)
(0.0056236 0.00504562 0.065903)
(0.00601907 0.00456661 0.065903)
(0.00637385 0.00405673 0.065903)
(0.00668556 0.00351943 0.065903)
(-0.00748559 -0.00102419 0.057903)
(-0.00754443 -0.000405822 0.057903)
(-0.00755227 0.000215294 0.057903)
(-0.00750906 0.000834956 0.057903)
(-0.00741509 0.00144897 0.057903)
(-0.007271 0.0020532 0.057903)
(-0.00707777 0.00264354 0.057903)
(-0.00683669 0.00321602 0.057903)
(-0.0065494 0.00376676 0.057903)
(-0.00621784 0.00429203 0.057903)
(-0.00584425 0.0047883 0.057903)
(-0.00543116 0.0052522 0.057903)
(-0.00498136 0.00568059 0.057903)
(-0.00449788 0.00607059 0.057903)
(-0.00398401 0.00641956 0.057903)
(-0.0034432 0.00672513 0.057903)
(-0.00287912 0.00698525 0.057903)
(-0.00229558 0.00719815 0.057903)
(-0.00169652 0.0073624 0.057903)
(-0.00108599 0.00747688 0.057903)
(-0.0108189 0.0198477 0.077596)
(-0.0118937 0.0195982 0.0771247)
(-0.0129456 0.0193128 0.076623)
(-0.0139725 0.0189919 0.076092)
(-0.0149726 0.0186362 0.0755326)
(-0.0159439 0.0182463 0.0749459)
(-0.0168845 0.017823 0.074333)
(-0.0177927 0.0173671 0.0736952)
(-0.0186667 0.0168794 0.0730335)
(-0.019505 0.0163609 0.0723493)
(-0.0203058 0.0158126 0.0716439)
(-0.0210677 0.0152355 0.0709186)
(-0.0217892 0.0146307 0.0701748)
(-0.0224689 0.0139994 0.0694139)
(-0.0231056 0.0133428 0.0686373)
(-0.023698 0.0126621 0.0678466)
(-0.024245 0.0119586 0.0670433)
(-0.0247456 0.0112336 0.0662287)
(-0.0251988 0.0104886 0.0654047)
(-0.0256037 0.00972489 0.0645726)
(-0.0259596 0.00894402 0.063734)
(-0.0262658 0.00814743 0.0628907)
(-0.0265218 0.00733665 0.0620441)
(-0.0267269 0.00651322 0.0611959)
(-0.0268809 0.00567871 0.0603477)
(-0.0269834 0.00483471 0.0595011)
(-0.0270343 0.00398281 0.0586578)
(-0.0270335 0.00312465 0.0578192)
(-0.0269809 0.00226186 0.0569871)
(-0.0268766 0.00139608 0.056163)
(-0.026721 0.000528953 0.0553485)
(-0.0265141 -0.000337863 0.0545452)
(-0.0262565 -0.00120272 0.0537544)
(-0.0259486 -0.00206397 0.0529779)
(-0.0255911 -0.00291998 0.052217)
(-0.0251846 -0.00376912 0.0514732)
(-0.0247298 -0.00460976 0.0507479)
(-0.0242277 -0.00544031 0.0500425)
(-0.0236792 -0.00625919 0.0493583)
(-0.0230853 -0.00706484 0.0486966)
(-0.0224471 -0.00785573 0.0480587)
(-0.021766 -0.00863035 0.0474459)
(-0.0210432 -0.00938723 0.0468592)
(-0.02028 -0.0101249 0.0462998)
(-0.0194779 -0.010842 0.0457688)
(-0.0186384 -0.0115372 0.0452671)
(-0.0177632 -0.012209 0.0447958)
(-0.0180626 -0.0135912 0.04621)
(-0.0189379 -0.0129193 0.0466813)
(-0.0197773 -0.0122242 0.047183)
(-0.0205794 -0.0115071 0.047714)
(-0.0213426 -0.0107694 0.0482734)
(-0.0220654 -0.0100125 0.0488601)
(-0.0227465 -0.00923789 0.049473)
(-0.0233847 -0.008447 0.0501108)
(-0.0239786 -0.00764135 0.0507725)
(-0.0245271 -0.00682247 0.0514567)
(-0.0250292 -0.00599191 0.0521621)
(-0.025484 -0.00515127 0.0528874)
(-0.0258905 -0.00430214 0.0536312)
(-0.0262481 -0.00344613 0.0543921)
(-0.0265559 -0.00258488 0.0551687)
(-0.0268135 -0.00172002 0.0559594)
(-0.0270204 -0.000853203 0.0567628)
(-0.0189662 0.0154972 0.0744477)
(-0.0198044 0.0149788 0.0737635)
(-0.0206052 0.0144305 0.0730581)
(-0.0162433 0.0168641 0.0763601)
(-0.0171839 0.0164408 0.0757473)
(-0.0180921 0.0159849 0.0751094)
(-0.015272 0.017254 0.0769468)
(-0.014272 0.0176097 0.0775062)
(-0.013245 0.0179306 0.0780372)
(-0.0121931 0.0182161 0.0785389)
(-0.0111184 0.0184655 0.0790102)
(-0.0213671 0.0138534 0.0723328)
(-0.0220886 0.0132486 0.071589)
(-0.0227683 0.0126173 0.0708281)
(-0.023405 0.0119606 0.0700516)
(-0.0239974 0.0112799 0.0692608)
(-0.0245444 0.0105764 0.0684575)
(-0.025045 0.00985145 0.067643)
(-0.0254982 0.00910642 0.0668189)
(-0.0259031 0.00834274 0.0659868)
(-0.026259 0.00756186 0.0651482)
(-0.0265652 0.00676528 0.0643049)
(-0.0268212 0.0059545 0.0634583)
(-0.0270263 0.00513107 0.0626101)
(-0.0271803 0.00429656 0.0617619)
(-0.0272829 0.00345255 0.0609153)
(-0.0273337 0.00260066 0.060072)
(-0.0273329 0.0017425 0.0592334)
(-0.0272803 0.000879704 0.0584013)
(-0.0271761 1.39218e-05 0.0575773)
(0.0208016 -0.00884711 0.04621)
(0.0206574 -0.009941 0.0466813)
(0.0204751 -0.0110156 0.047183)
(0.0202551 -0.0120687 0.047714)
(0.0199978 -0.0130985 0.0482734)
(0.0197038 -0.014103 0.0488601)
(0.0193735 -0.0150802 0.049473)
(0.0190076 -0.0160282 0.0501108)
(0.0186069 -0.0169454 0.0507725)
(0.018172 -0.0178299 0.0514567)
(0.0177038 -0.01868 0.0521621)
(0.0172031 -0.0194941 0.0528874)
(0.016671 -0.0202708 0.0536312)
(0.0161085 -0.0210084 0.0543921)
(0.0155165 -0.0217057 0.0551687)
(0.0148963 -0.0223612 0.0559594)
(0.0142491 -0.0229737 0.0567628)
(-0.00393792 -0.0241738 0.0744477)
(-0.00306979 -0.0246405 0.0737635)
(-0.00219453 -0.0250599 0.0730581)
(-0.00648311 -0.0224991 0.0763601)
(-0.00564621 -0.0231021 0.0757473)
(-0.00479727 -0.0236607 0.0751094)
(-0.0073064 -0.0218529 0.0769468)
(-0.00811449 -0.0211647 0.0775062)
(-0.00890586 -0.0204358 0.0780372)
(-0.00967899 -0.0196676 0.0785389)
(-0.0104324 -0.0188615 0.0790102)
(-0.00131382 -0.0254311 0.0723328)
(-0.000429324 -0.0257536 0.071589)
(0.000457271 -0.0260266 0.0708281)
(0.00134428 -0.0262497 0.0700516)
(0.00223001 -0.0264223 0.0692608)
(0.00311277 -0.0265443 0.0684575)
(0.0039909 -0.0266153 0.067643)
(0.0048627 -0.0266353 0.0668189)
(0.00572653 -0.0266041 0.0659868)
(0.00658075 -0.0265219 0.0651482)
(0.00742372 -0.0263888 0.0643049)
(0.00825384 -0.0262051 0.0634583)
(0.00906952 -0.025971 0.0626101)
(0.00986923 -0.0256871 0.0617619)
(0.0106514 -0.0253539 0.0609153)
(0.0114146 -0.024972 0.060072)
(0.0121574 -0.0245422 0.0592334)
(0.0128783 -0.0240653 0.0584013)
(0.013576 -0.0235421 0.0575773)
(-0.0117791 -0.0192933 0.077596)
(-0.0110257 -0.0200994 0.0771247)
(-0.0102526 -0.0208676 0.076623)
(-0.00946118 -0.0215965 0.076092)
(-0.00865308 -0.0222847 0.0755326)
(-0.0078298 -0.0229309 0.0749459)
(-0.00699289 -0.0235339 0.074333)
(-0.00614395 -0.0240925 0.0736952)
(-0.0052846 -0.0246056 0.0730335)
(-0.00441647 -0.0250723 0.0723493)
(-0.00354122 -0.0254916 0.0716439)
(-0.00266051 -0.0258629 0.0709186)
(-0.00177601 -0.0261854 0.0701748)
(-0.000889415 -0.0264584 0.0694139)
(-2.40876e-06 -0.0266814 0.0686373)
(0.000883321 -0.0268541 0.0678466)
(0.00176609 -0.0269761 0.0670433)
(0.00264421 -0.0270471 0.0662287)
(0.00351602 -0.0270671 0.0654047)
(0.00437985 -0.0270359 0.0645726)
(0.00523406 -0.0269537 0.063734)
(0.00607703 -0.0268206 0.0628907)
(0.00690715 -0.0266368 0.0620441)
(0.00772284 -0.0264028 0.0611959)
(0.00852254 -0.0261189 0.0603477)
(0.00930475 -0.0257857 0.0595011)
(0.010068 -0.0254038 0.0586578)
(0.0108107 -0.024974 0.0578192)
(0.0115316 -0.0244971 0.0569871)
(0.0122293 -0.0239739 0.056163)
(0.0129024 -0.0234055 0.0553485)
(0.0135497 -0.022793 0.0545452)
(0.0141698 -0.0221375 0.0537544)
(0.0147618 -0.0214402 0.0529779)
(0.0153243 -0.0207026 0.052217)
(0.0158564 -0.0199259 0.0514732)
(0.0163571 -0.0191118 0.0507479)
(0.0168253 -0.0182616 0.0500425)
(0.0172602 -0.0173771 0.0493583)
(0.017661 -0.01646 0.0486966)
(0.0180268 -0.0155119 0.0480587)
(0.0183571 -0.0145347 0.0474459)
(0.0186512 -0.0135303 0.0468592)
(0.0189084 -0.0125005 0.0462998)
(0.0191284 -0.0114473 0.0457688)
(0.0193107 -0.0103728 0.0452671)
(0.019455 -0.00927889 0.0447958)
(0.0215508 0.000396028 0.0790102)
(0.0218721 0.00145155 0.0785389)
(0.0221509 0.00250521 0.0780372)
(0.0223864 0.00355501 0.0775062)
(0.0225784 0.00459894 0.0769468)
(0.0227264 0.00563503 0.0763601)
(0.0228301 0.00666129 0.0757473)
(0.0228894 0.00767578 0.0751094)
(0.0229041 0.00867656 0.0744477)
(0.0228742 0.00966173 0.0737635)
(0.0227998 0.0106294 0.0730581)
(0.0226809 0.0115778 0.0723328)
(0.0225179 0.012505 0.071589)
(0.0223111 0.0134093 0.0708281)
(0.0220607 0.014289 0.0700516)
(0.0217674 0.0151424 0.0692608)
(0.0214316 0.0159679 0.0684575)
(0.0210541 0.0167639 0.067643)
(0.0206355 0.0175289 0.0668189)
(0.0201766 0.0182614 0.0659868)
(0.0196783 0.01896 0.0651482)
(0.0191415 0.0196235 0.0643049)
(0.0185673 0.0202506 0.0634583)
(0.0179568 0.02084 0.0626101)
(0.0173111 0.0213906 0.0617619)
(0.0166314 0.0219014 0.0609153)
(0.0159191 0.0223714 0.060072)
(0.0151755 0.0227997 0.0592334)
(0.014402 0.0231856 0.0584013)
(0.0136001 0.0235282 0.0575773)
(0.0127713 0.0238269 0.0567628)
(0.0119172 0.0240812 0.0559594)
(0.0110394 0.0242905 0.0551687)
(0.0101396 0.0244546 0.0543921)
(0.0092195 0.0245729 0.0536312)
(0.00828086 0.0246454 0.0528874)
(0.00732546 0.0246719 0.0521621)
(0.00635511 0.0246523 0.0514567)
(0.00537168 0.0245867 0.0507725)
(0.00437702 0.0244752 0.0501108)
(0.00337303 0.024318 0.049473)
(0.00236162 0.0241155 0.0488601)
(0.00134473 0.0238679 0.0482734)
(0.000324271 0.0235758 0.047714)
(-0.000697798 0.0232397 0.047183)
(-0.00171953 0.0228603 0.0466813)
(-0.002739 0.0224383 0.04621)
(0.0225981 -0.000554346 0.077596)
(0.0229194 0.000501174 0.0771247)
(0.0231982 0.00155484 0.076623)
(0.0234337 0.00260463 0.076092)
(0.0236257 0.00364857 0.0755326)
(0.0237737 0.00468465 0.0749459)
(0.0238774 0.00571092 0.074333)
(0.0239366 0.00672541 0.0736952)
(0.0239514 0.00772619 0.0730335)
(0.0239215 0.00871136 0.0723493)
(0.023847 0.00967904 0.0716439)
(0.0237282 0.0106274 0.0709186)
(0.0235652 0.0115546 0.0701748)
(0.0233583 0.0124589 0.0694139)
(0.023108 0.0133386 0.0686373)
(0.0228147 0.014192 0.0678466)
(0.0224789 0.0150175 0.0670433)
(0.0221014 0.0158135 0.0662287)
(0.0216828 0.0165785 0.0654047)
(0.0212239 0.017311 0.0645726)
(0.0207256 0.0180097 0.063734)
(0.0201888 0.0186732 0.0628907)
(0.0196146 0.0193002 0.0620441)
(0.0190041 0.0198896 0.0611959)
(0.0183584 0.0204402 0.0603477)
(0.0176787 0.020951 0.0595011)
(0.0169664 0.021421 0.0586578)
(0.0162228 0.0218494 0.0578192)
(0.0154493 0.0222352 0.0569871)
(0.0146474 0.0225778 0.056163)
(0.0138186 0.0228765 0.0553485)
(0.0129645 0.0231308 0.0545452)
(0.0120867 0.0233402 0.0537544)
(0.0111869 0.0235042 0.0529779)
(0.0102668 0.0236225 0.052217)
(0.00932814 0.023695 0.0514732)
(0.00837273 0.0237215 0.0507479)
(0.00740239 0.0237019 0.0500425)
(0.00641895 0.0236363 0.0493583)
(0.00542429 0.0235248 0.0486966)
(0.00442031 0.0233677 0.0480587)
(0.0034089 0.0231651 0.0474459)
(0.002392 0.0229175 0.0468592)
(0.00137155 0.0226254 0.0462998)
(0.000349479 0.0222894 0.0457688)
(-0.000672258 0.02191 0.0452671)
(-0.00169172 0.0214879 0.0447958)
(8.12406e-05 0.00509837 -0.00631923)
(0.0020359 0.00467494 -0.00631923)
(0.0020359 0.00467494 -0.00254133)
(8.12406e-05 0.00509837 -0.00254133)
(0.00127202 0.0105953 -0.00967417)
(0.00133137 0.0108693 -0.00981291)
(0.00328604 0.0104459 -0.00981291)
(0.00322668 0.0101719 -0.00967417)
(0.00139458 0.0111611 -0.00990624)
(0.00334925 0.0107377 -0.00990624)
(0.00341476 0.0110401 -0.00995188)
(0.0014601 0.0114636 -0.00995188)
(0.00152632 0.0117693 -0.00994871)
(0.00348099 0.0113458 -0.00994871)
(0.00159163 0.0120707 -0.00989681)
(0.00354629 0.0116473 -0.00989681)
(0.00653248 0.0254324 -0.00637062)
(0.00653248 0.0254324 -0.00249005)
(0.00354629 0.0116473 0.00103615)
(0.00328604 0.0104459 0.000952254)
(0.00322669 0.0101719 0.000813515)
(0.00334925 0.0107377 0.00104558)
(0.00348098 0.0113458 0.00108805)
(0.00341476 0.0110401 0.00109122)
(0.00659504 0.0257212 -0.00627171)
(0.0066536 0.0259915 -0.00612809)
(0.00670672 0.0262367 -0.00594325)
(0.00675312 0.0264509 -0.00572168)
(0.00679166 0.0266288 -0.00546875)
(0.00682142 0.0267662 -0.00519061)
(0.00684167 0.0268597 -0.00489401)
(0.00685192 0.026907 -0.00458615)
(0.00685192 0.026907 -0.00427451)
(0.00684167 0.0268597 -0.00396666)
(0.00682142 0.0267662 -0.00367006)
(0.00679166 0.0266288 -0.00339192)
(0.00675312 0.0264509 -0.00313899)
(0.00670672 0.0262367 -0.00291741)
(0.0066536 0.0259915 -0.00273258)
(0.00659504 0.0257212 -0.00258896)
(0.00457781 0.0258558 -0.00637062)
(0.00464038 0.0261446 -0.00627171)
(0.00469894 0.0264149 -0.00612809)
(0.00475206 0.0266601 -0.00594325)
(0.00479845 0.0268743 -0.00572168)
(0.004837 0.0270522 -0.00546875)
(0.00486676 0.0271896 -0.00519061)
(0.00488701 0.0272831 -0.00489401)
(0.00489726 0.0273304 -0.00458615)
(0.00489726 0.0273304 -0.00427451)
(0.00488701 0.0272831 -0.00396666)
(0.00486676 0.0271896 -0.00367006)
(0.004837 0.0270522 -0.00339192)
(0.00479845 0.0268743 -0.00313899)
(0.00475206 0.0266601 -0.00291741)
(0.00469894 0.0264149 -0.00273258)
(0.00464038 0.0261446 -0.00258896)
(0.00457781 0.0258558 -0.00249005)
(0.00159163 0.0120707 0.00103615)
(0.00152632 0.0117693 0.00108805)
(0.0014601 0.0114636 0.00109122)
(0.00139458 0.0111611 0.00104558)
(0.00133138 0.0108693 0.000952254)
(0.00127202 0.0105953 0.000813515)
(0.00445594 0.00247883 -0.00631923)
(0.00506657 0.000574327 -0.00631923)
(0.00506657 0.000574327 -0.00254133)
(0.00445594 0.00247883 -0.00254133)
(0.00981184 0.00419607 -0.00967417)
(0.0100788 0.00428166 -0.00981291)
(0.0106894 0.00237716 -0.00981291)
(0.0104225 0.00229156 -0.00967417)
(0.0103631 0.00437282 -0.00990624)
(0.0109737 0.00246831 -0.00990624)
(0.0112684 0.0025628 -0.00995188)
(0.0106578 0.0044673 -0.00995188)
(0.0109556 0.0045628 -0.00994871)
(0.0115663 0.0026583 -0.00994871)
(0.0112494 0.00465698 -0.00989681)
(0.01186 0.00275248 -0.00989681)
(0.0252913 0.00705888 -0.00637062)
(0.0252913 0.00705888 -0.00249005)
(0.01186 0.00275247 0.00103615)
(0.0106894 0.00237716 0.000952254)
(0.0104225 0.00229157 0.000813515)
(0.0109737 0.00246831 0.00104558)
(0.0115663 0.00265829 0.00108805)
(0.0112684 0.0025628 0.00109122)
(0.0255727 0.00714911 -0.00627171)
(0.0258361 0.00723356 -0.00612809)
(0.026075 0.00731016 -0.00594325)
(0.0262837 0.00737707 -0.00572168)
(0.0264571 0.00743266 -0.00546875)
(0.0265909 0.00747558 -0.00519061)
(0.026682 0.00750478 -0.00489401)
(0.0267281 0.00751956 -0.00458615)
(0.0267281 0.00751956 -0.00427451)
(0.026682 0.00750478 -0.00396666)
(0.0265909 0.00747558 -0.00367006)
(0.0264571 0.00743266 -0.00339192)
(0.0262837 0.00737707 -0.00313899)
(0.026075 0.00731016 -0.00291741)
(0.0258361 0.00723356 -0.00273258)
(0.0255727 0.00714911 -0.00258896)
(0.0246807 0.00896339 -0.00637062)
(0.0249621 0.00905362 -0.00627171)
(0.0252255 0.00913806 -0.00612809)
(0.0254644 0.00921466 -0.00594325)
(0.0256731 0.00928157 -0.00572168)
(0.0258464 0.00933716 -0.00546875)
(0.0259803 0.00938008 -0.00519061)
(0.0260714 0.00940928 -0.00489401)
(0.0261175 0.00942406 -0.00458615)
(0.0261175 0.00942406 -0.00427451)
(0.0260714 0.00940928 -0.00396666)
(0.0259803 0.00938008 -0.00367006)
(0.0258464 0.00933716 -0.00339192)
(0.0256731 0.00928157 -0.00313899)
(0.0254644 0.00921466 -0.00291741)
(0.0252255 0.00913806 -0.00273258)
(0.0249621 0.00905362 -0.00258896)
(0.0246807 0.00896339 -0.00249005)
(0.0112494 0.00465698 0.00103615)
(0.0109556 0.0045628 0.00108805)
(0.0106578 0.0044673 0.00109122)
(0.0103631 0.00437282 0.00104558)
(0.0100788 0.00428166 0.000952254)
(0.00981185 0.00419607 0.000813515)
(0.0043747 -0.00261954 -0.00631923)
(0.00303067 -0.00410062 -0.00631923)
(0.00303067 -0.00410062 -0.00254133)
(0.0043747 -0.00261954 -0.00254133)
(0.00853982 -0.00639927 -0.00967417)
(0.00874743 -0.00658767 -0.00981291)
(0.0074034 -0.00806875 -0.00981291)
(0.00719579 -0.00788034 -0.00967417)
(0.00896852 -0.00678831 -0.00990624)
(0.00762449 -0.00826938 -0.00990624)
(0.00785366 -0.00847734 -0.00995188)
(0.00919769 -0.00699627 -0.00995188)
(0.00942932 -0.00720647 -0.00994871)
(0.00808529 -0.00868754 -0.00994871)
(0.00965775 -0.00741376 -0.00989681)
(0.00831372 -0.00889484 -0.00989681)
(0.0187588 -0.0183735 -0.00637062)
(0.0187588 -0.0183735 -0.00249005)
(0.00831371 -0.00889483 0.00103615)
(0.0074034 -0.00806875 0.000952254)
(0.00719579 -0.00788035 0.000813515)
(0.00762449 -0.00826938 0.00104558)
(0.00808528 -0.00868754 0.00108805)
(0.00785366 -0.00847734 0.00109122)
(0.0189777 -0.0185721 -0.00627171)
(0.0191825 -0.0187579 -0.00612809)
(0.0193683 -0.0189265 -0.00594325)
(0.0195306 -0.0190738 -0.00572168)
(0.0196654 -0.0191962 -0.00546875)
(0.0197695 -0.0192906 -0.00519061)
(0.0198403 -0.0193549 -0.00489401)
(0.0198762 -0.0193874 -0.00458615)
(0.0198762 -0.0193874 -0.00427451)
(0.0198403 -0.0193549 -0.00396666)
(0.0197695 -0.0192906 -0.00367006)
(0.0196654 -0.0191962 -0.00339192)
(0.0195306 -0.0190738 -0.00313899)
(0.0193683 -0.0189265 -0.00291741)
(0.0191825 -0.0187579 -0.00273258)
(0.0189777 -0.0185721 -0.00258896)
(0.0201029 -0.0168924 -0.00637062)
(0.0203217 -0.017091 -0.00627171)
(0.0205265 -0.0172769 -0.00612809)
(0.0207123 -0.0174455 -0.00594325)
(0.0208746 -0.0175927 -0.00572168)
(0.0210094 -0.0177151 -0.00546875)
(0.0211135 -0.0178095 -0.00519061)
(0.0211844 -0.0178738 -0.00489401)
(0.0212202 -0.0179064 -0.00458615)
(0.0212202 -0.0179064 -0.00427451)
(0.0211844 -0.0178738 -0.00396666)
(0.0211135 -0.0178095 -0.00367006)
(0.0210094 -0.0177151 -0.00339192)
(0.0208746 -0.0175927 -0.00313899)
(0.0207123 -0.0174455 -0.00291741)
(0.0205265 -0.0172769 -0.00273258)
(0.0203217 -0.017091 -0.00258896)
(0.0201029 -0.0168924 -0.00249005)
(0.00965775 -0.00741376 0.00103615)
(0.00942932 -0.00720646 0.00108805)
(0.00919769 -0.00699627 0.00109122)
(0.00896852 -0.00678831 0.00104558)
(0.00874744 -0.00658767 0.000952254)
(0.00853983 -0.00639928 0.000813515)
(-8.12406e-05 -0.00509837 -0.00631923)
(-0.0020359 -0.00467494 -0.00631923)
(-0.0020359 -0.00467494 -0.00254133)
(-8.12406e-05 -0.00509837 -0.00254133)
(-0.00127202 -0.0105953 -0.00967417)
(-0.00133137 -0.0108693 -0.00981291)
(-0.00328604 -0.0104459 -0.00981291)
(-0.00322668 -0.0101719 -0.00967417)
(-0.00139458 -0.0111611 -0.00990624)
(-0.00334925 -0.0107377 -0.00990624)
(-0.00341476 -0.0110401 -0.00995188)
(-0.0014601 -0.0114636 -0.00995188)
(-0.00152632 -0.0117693 -0.00994871)
(-0.00348099 -0.0113458 -0.00994871)
(-0.00159163 -0.0120707 -0.00989681)
(-0.00354629 -0.0116473 -0.00989681)
(-0.00653248 -0.0254324 -0.00637062)
(-0.00653248 -0.0254324 -0.00249005)
(-0.00354629 -0.0116473 0.00103615)
(-0.00328604 -0.0104459 0.000952254)
(-0.00322669 -0.0101719 0.000813515)
(-0.00334925 -0.0107377 0.00104558)
(-0.00348098 -0.0113458 0.00108805)
(-0.00341476 -0.0110401 0.00109122)
(-0.00659504 -0.0257212 -0.00627171)
(-0.0066536 -0.0259915 -0.00612809)
(-0.00670672 -0.0262367 -0.00594325)
(-0.00675312 -0.0264509 -0.00572168)
(-0.00679166 -0.0266288 -0.00546875)
(-0.00682142 -0.0267662 -0.00519061)
(-0.00684167 -0.0268597 -0.00489401)
(-0.00685192 -0.026907 -0.00458615)
(-0.00685192 -0.026907 -0.00427451)
(-0.00684167 -0.0268597 -0.00396666)
(-0.00682142 -0.0267662 -0.00367006)
(-0.00679166 -0.0266288 -0.00339192)
(-0.00675312 -0.0264509 -0.00313899)
(-0.00670672 -0.0262367 -0.00291741)
(-0.0066536 -0.0259915 -0.00273258)
(-0.00659504 -0.0257212 -0.00258896)
(-0.00457781 -0.0258558 -0.00637062)
(-0.00464038 -0.0261446 -0.00627171)
(-0.00469894 -0.0264149 -0.00612809)
(-0.00475206 -0.0266601 -0.00594325)
(-0.00479845 -0.0268743 -0.00572168)
(-0.004837 -0.0270522 -0.00546875)
(-0.00486676 -0.0271896 -0.00519061)
(-0.00488701 -0.0272831 -0.00489401)
(-0.00489726 -0.0273304 -0.00458615)
(-0.00489726 -0.0273304 -0.00427451)
(-0.00488701 -0.0272831 -0.00396666)
(-0.00486676 -0.0271896 -0.00367006)
(-0.004837 -0.0270522 -0.00339192)
(-0.00479845 -0.0268743 -0.00313899)
(-0.00475206 -0.0266601 -0.00291741)
(-0.00469894 -0.0264149 -0.00273258)
(-0.00464038 -0.0261446 -0.00258896)
(-0.00457781 -0.0258558 -0.00249005)
(-0.00159163 -0.0120707 0.00103615)
(-0.00152632 -0.0117693 0.00108805)
(-0.0014601 -0.0114636 0.00109122)
(-0.00139458 -0.0111611 0.00104558)
(-0.00133138 -0.0108693 0.000952254)
(-0.00127202 -0.0105953 0.000813515)
(-0.00445594 -0.00247883 -0.00631923)
(-0.00506657 -0.000574327 -0.00631923)
(-0.00506657 -0.000574327 -0.00254133)
(-0.00445594 -0.00247883 -0.00254133)
(-0.00981184 -0.00419607 -0.00967417)
(-0.0100788 -0.00428166 -0.00981291)
(-0.0106894 -0.00237716 -0.00981291)
(-0.0104225 -0.00229156 -0.00967417)
(-0.0103631 -0.00437282 -0.00990624)
(-0.0109737 -0.00246831 -0.00990624)
(-0.0112684 -0.0025628 -0.00995188)
(-0.0106578 -0.0044673 -0.00995188)
(-0.0109556 -0.0045628 -0.00994871)
(-0.0115663 -0.0026583 -0.00994871)
(-0.0112494 -0.00465698 -0.00989681)
(-0.01186 -0.00275248 -0.00989681)
(-0.0252913 -0.00705888 -0.00637062)
(-0.0252913 -0.00705888 -0.00249005)
(-0.01186 -0.00275247 0.00103615)
(-0.0106894 -0.00237716 0.000952254)
(-0.0104225 -0.00229157 0.000813515)
(-0.0109737 -0.00246831 0.00104558)
(-0.0115663 -0.00265829 0.00108805)
(-0.0112684 -0.0025628 0.00109122)
(-0.0255727 -0.00714911 -0.00627171)
(-0.0258361 -0.00723356 -0.00612809)
(-0.026075 -0.00731016 -0.00594325)
(-0.0262837 -0.00737707 -0.00572168)
(-0.0264571 -0.00743266 -0.00546875)
(-0.0265909 -0.00747558 -0.00519061)
(-0.026682 -0.00750478 -0.00489401)
(-0.0267281 -0.00751956 -0.00458615)
(-0.0267281 -0.00751956 -0.00427451)
(-0.026682 -0.00750478 -0.00396666)
(-0.0265909 -0.00747558 -0.00367006)
(-0.0264571 -0.00743266 -0.00339192)
(-0.0262837 -0.00737707 -0.00313899)
(-0.026075 -0.00731016 -0.00291741)
(-0.0258361 -0.00723356 -0.00273258)
(-0.0255727 -0.00714911 -0.00258896)
(-0.0246807 -0.00896339 -0.00637062)
(-0.0249621 -0.00905362 -0.00627171)
(-0.0252255 -0.00913806 -0.00612809)
(-0.0254644 -0.00921466 -0.00594325)
(-0.0256731 -0.00928157 -0.00572168)
(-0.0258464 -0.00933716 -0.00546875)
(-0.0259803 -0.00938008 -0.00519061)
(-0.0260714 -0.00940928 -0.00489401)
(-0.0261175 -0.00942406 -0.00458615)
(-0.0261175 -0.00942406 -0.00427451)
(-0.0260714 -0.00940928 -0.00396666)
(-0.0259803 -0.00938008 -0.00367006)
(-0.0258464 -0.00933716 -0.00339192)
(-0.0256731 -0.00928157 -0.00313899)
(-0.0254644 -0.00921466 -0.00291741)
(-0.0252255 -0.00913806 -0.00273258)
(-0.0249621 -0.00905362 -0.00258896)
(-0.0246807 -0.00896339 -0.00249005)
(-0.0112494 -0.00465698 0.00103615)
(-0.0109556 -0.0045628 0.00108805)
(-0.0106578 -0.0044673 0.00109122)
(-0.0103631 -0.00437282 0.00104558)
(-0.0100788 -0.00428166 0.000952254)
(-0.00981185 -0.00419607 0.000813515)
(0.00046512 0.00497832 -0.010097)
(-4.92213e-05 0.00499976 -0.010097)
(0.00097453 0.00490411 -0.010097)
(0.00147361 0.00477791 -0.010097)
(0.00195707 0.00460107 -0.010097)
(0.00241978 0.00437546 -0.010097)
(0.00285685 0.00410346 -0.010097)
(0.00326363 0.00378797 -0.010097)
(0.00363581 0.00343233 -0.010097)
(0.00396946 0.0030403 -0.010097)
(0.00426103 0.00261604 -0.010097)
(0.00450743 0.00216405 -0.010097)
(0.00470605 0.00168912 -0.010097)
(0.00485478 0.00119629 -0.010097)
(0.00495205 0.000690775 -0.010097)
(0.00499683 0.000177938 -0.010097)