/*--------------------------------*- C++ -*----------------------------------*\
  =========                 |
  \\      /  F ield         | OpenFOAM: The Open Source CFD Toolbox
   \\    /   O peration     | Website:  https://openfoam.org
    \\  /    A nd           | Version:  9
     \\/     M anipulation  |
\*---------------------------------------------------------------------------*/
FoamFile
{
    format      ascii;
    class       featureEdgeMesh;
    location    "constant/triSurface";
    object      BOTTOM.eMesh;
}
// * * * * * * * * * * * * * * * * * * * * * * * * * * * * * * * * * * * * * //


// points:

367
(
(-0.0433048 0.0718603 6.24501e-17)
(-0.0457728 0.070314 6.24501e-17)
(-0.0407847 0.07332 6.24501e-17)
(-0.0382154 0.0746913 6.24501e-17)
(-0.0481856 0.0686831 6.24501e-17)
(-0.0505403 0.0669693 6.24501e-17)
(-0.0528341 0.0651749 6.24501e-17)
(-0.0550643 0.0633019 6.24501e-17)
(-0.0572282 0.0613527 6.24501e-17)
(-0.059323 0.0593295 6.24501e-17)
(-0.0613464 0.0572348 6.24501e-17)
(-0.0632959 0.0550712 6.24501e-17)
(-0.0651691 0.0528412 6.24501e-17)
(-0.0669638 0.0505476 6.24501e-17)
(-0.0686778 0.048193 6.24501e-17)
(-0.0703091 0.0457804 6.24501e-17)
(-0.0718556 0.0433127 6.24501e-17)
(-0.0733155 0.0407927 6.24501e-17)
(-0.0746871 0.0382236 6.24501e-17)
(-0.0759688 0.0356084 6.24501e-17)
(-0.0771588 0.0329503 6.93889e-17)
(-0.078256 0.0302525 6.93889e-17)
(-0.0792588 0.0275183 6.93889e-17)
(-0.0801661 0.0247509 6.93889e-17)
(-0.0809768 0.0219537 6.93889e-17)
(-0.08169 0.01913 6.24501e-17)
(-0.0823047 0.0162833 6.24501e-17)
(-0.0828203 0.0134169 6.24501e-17)
(-0.083236 0.0105344 6.24501e-17)
(-0.0835515 0.00763924 6.24501e-17)
(-0.0837663 0.00473484 6.24501e-17)
(-0.0838801 0.00182473 6.24501e-17)
(-0.0838929 -0.00108758 6.24501e-17)
(-0.0838047 -0.00399858 6.24501e-17)
(-0.0836154 -0.00690476 6.24501e-17)
(-0.0833254 -0.00980262 5.55112e-17)
(-0.082935 -0.0126887 5.55112e-17)
(-0.0824446 -0.0155594 6.24501e-17)
(-0.0818549 -0.0184114 6.24501e-17)
(-0.0811666 -0.0212413 6.24501e-17)
(-0.0803805 -0.0240455 6.24501e-17)
(-0.0794975 -0.0268208 6.24501e-17)
(-0.0785188 -0.0295637 6.24501e-17)
(-0.0774454 -0.032271 6.24501e-17)
(-0.0762787 -0.0349395 5.55112e-17)
(-0.0750201 -0.0375658 5.55112e-17)
(-0.0736711 -0.0401469 5.55112e-17)
(-0.0722334 -0.0426796 5.55112e-17)
(-0.0707086 -0.0451608 5.55112e-17)
(-0.0690986 -0.0475877 5.55112e-17)
(-0.0674054 -0.0499572 5.55112e-17)
(-0.0656309 -0.0522665 5.55112e-17)
(-0.0637774 -0.0545129 4.85723e-17)
(-0.061847 -0.0566936 4.85723e-17)
(-0.0598421 -0.0588059 4.85723e-17)
(-0.0577651 -0.0608474 4.85723e-17)
(-0.0556185 -0.0628156 4.85723e-17)
(-0.0534048 -0.0647081 4.85723e-17)
(-0.0511268 -0.0665226 4.85723e-17)
(-0.0487873 -0.068257 3.46945e-17)
(-0.0463889 -0.0699091 2.77556e-17)
(-0.0439346 -0.071477 2.77556e-17)
(-0.0414274 -0.0729588 2.77556e-17)
(-0.0388703 -0.0743526 2.77556e-17)
(-0.0362663 -0.0756569 2.77556e-17)
(-0.0336187 -0.07687 2.77556e-17)
(-0.0309305 -0.0779905 2.77556e-17)
(-0.0282051 -0.079017 2.77556e-17)
(-0.0254457 -0.0799483 2.77556e-17)
(-0.0226556 -0.0807832 2.77556e-17)
(-0.0198382 -0.0815209 2.08167e-17)
(-0.0169969 -0.0821603 2.08167e-17)
(-0.0141352 -0.0827007 2.08167e-17)
(-0.0112564 -0.0831415 2.08167e-17)
(-0.00836404 -0.083482 2.08167e-17)
(-0.00546161 -0.083722 2.08167e-17)
(-0.0025526 -0.0838612 6.93889e-18)
(0.000359489 -0.0838992 6.93889e-18)
(0.00327114 -0.0838362 6.93889e-18)
(0.00617886 -0.0836722 6.93889e-18)
(0.00907912 -0.0834073 6.93889e-18)
(0.0119684 -0.083042 6.93889e-18)
(0.0148434 -0.0825765 6.93889e-18)
(0.0177004 -0.0820116 6.93889e-18)
(0.0205361 -0.0813479 6.93889e-18)
(0.023347 -0.0805861 6.93889e-18)
(0.0261298 -0.0797273 6.93889e-18)
(0.0288812 -0.0787724 6.93889e-18)
(0.0315977 -0.0777225 -6.93889e-18)
(0.0342762 -0.0765791 -6.93889e-18)
(0.0369133 -0.0753433 -6.93889e-18)
(0.039506 -0.0740168 -6.93889e-18)
(0.0420511 -0.0726011 -6.93889e-18)
(0.0445455 -0.0710979 -6.93889e-18)
(0.0469862 -0.069509 -6.93889e-18)
(0.0493704 -0.0678364 -6.93889e-18)
(0.051695 -0.066082 -6.93889e-18)
(0.0539574 -0.0642481 -6.93889e-18)
(0.0561547 -0.0623367 -6.93889e-18)
(0.0582844 -0.0603502 -6.93889e-18)
(0.0603438 -0.0582909 -6.93889e-18)
(0.0623306 -0.0561615 -6.93889e-18)
(0.0642422 -0.0539644 -6.93889e-18)
(0.0660764 -0.0517022 -6.93889e-18)
(0.067831 -0.0493778 -6.93889e-18)
(0.0695039 -0.0469938 -6.93889e-18)
(0.071093 -0.0445533 -6.93889e-18)
(0.0725965 -0.042059 -6.93889e-18)
(0.0740125 -0.0395141 -6.93889e-18)
(0.0753393 -0.0369215 -6.93889e-18)
(0.0765753 -0.0342845 -1.38778e-17)
(0.0777191 -0.0316062 -1.38778e-17)
(0.0787692 -0.0288897 -1.38778e-17)
(0.0797245 -0.0261385 -1.38778e-17)
(0.0805836 -0.0233558 -1.38778e-17)
(0.0813457 -0.0205449 -1.38778e-17)
(0.0820097 -0.0177093 -6.93889e-18)
(0.0825749 -0.0148523 -6.93889e-18)
(0.0830406 -0.0119775 -6.93889e-18)
(0.0834063 -0.00908821 -6.93889e-18)
(0.0836715 -0.00618797 -6.93889e-18)
(0.0838358 -0.00328028 -6.93889e-18)
(0.0838992 -0.000368629 -6.93889e-18)
(0.0838614 0.00254346 -6.93889e-18)
(0.0837226 0.00545249 -6.93889e-18)
(0.083483 0.00835495 -6.93889e-18)
(0.0831427 0.0112473 0)
(0.0827022 0.0141262 -6.93889e-18)
(0.0821621 0.016988 -6.93889e-18)
(0.0815231 0.0198293 -6.93889e-18)
(0.0807857 0.0226468 -6.93889e-18)
(0.0799511 0.025437 -6.93889e-18)
(0.0790201 0.0281965 -6.93889e-18)
(0.0779938 0.030922 -6.93889e-18)
(0.0768737 0.0336103 0)
(0.0756608 0.0362581 0)
(0.0743568 0.0388622 0)
(0.0729633 0.0414195 0)
(0.0714818 0.0439268 0)
(0.0699141 0.0463813 0)
(0.0682623 0.0487798 0)
(0.0665282 0.0511196 0)
(0.0647139 0.0533978 6.93889e-18)
(0.0628216 0.0556116 6.93889e-18)
(0.0608537 0.0577584 6.93889e-18)
(0.0588124 0.0598357 6.93889e-18)
(0.0567003 0.0618408 6.93889e-18)
(0.0545198 0.0637714 6.93889e-18)
(0.0522737 0.0656252 6.93889e-18)
(0.0499646 0.0673999 2.08167e-17)
(0.0475952 0.0690934 2.08167e-17)
(0.0451685 0.0707037 2.77556e-17)
(0.0426874 0.0722288 2.77556e-17)
(0.0401549 0.0736668 2.77556e-17)
(0.037574 0.0750161 2.77556e-17)
(0.0349478 0.0762749 2.77556e-17)
(0.0322795 0.0774419 2.77556e-17)
(0.0295723 0.0785156 2.77556e-17)
(0.0268294 0.0794946 2.77556e-17)
(0.0240542 0.0803779 2.77556e-17)
(0.0212501 0.0811643 2.77556e-17)
(0.0184203 0.0818529 3.46945e-17)
(0.0155684 0.0824429 3.46945e-17)
(0.0126977 0.0829336 3.46945e-17)
(0.00981169 0.0833243 3.46945e-17)
(0.00691386 0.0836146 3.46945e-17)
(0.00400771 0.0838042 4.85723e-17)
(0.00109672 0.0838928 4.85723e-17)
(-0.00181559 0.0838803 4.85723e-17)
(-0.00472571 0.0837668 4.85723e-17)
(-0.00763014 0.0835523 4.85723e-17)
(-0.0105254 0.0832372 4.85723e-17)
(-0.0134079 0.0828217 4.85723e-17)
(-0.0162743 0.0823065 4.85723e-17)
(-0.0191211 0.0816921 4.85723e-17)
(-0.0219449 0.0809792 4.85723e-17)
(-0.0247422 0.0801688 4.85723e-17)
(-0.0275097 0.0792618 4.85723e-17)
(-0.030244 0.0782593 6.24501e-17)
(-0.0329419 0.0771624 6.24501e-17)
(-0.0356001 0.0759726 6.24501e-17)
(-0.0458856 0.0761428 6.24501e-17)
(-0.0432877 0.0776491 6.24501e-17)
(-0.0484311 0.0745496 6.24501e-17)
(-0.0509213 0.0728714 6.24501e-17)
(-0.0533534 0.07111 6.24501e-17)
(-0.0557246 0.0692674 6.24501e-17)
(-0.0580323 0.0673459 6.24501e-17)
(-0.0602737 0.0653474 6.93889e-17)
(-0.0624464 0.0632745 6.93889e-17)
(-0.0645478 0.0611293 6.93889e-17)
(-0.0665756 0.0589144 6.93889e-17)
(-0.0685274 0.0566322 6.93889e-17)
(-0.070401 0.0542855 6.93889e-17)
(-0.0721943 0.0518768 6.24501e-17)
(-0.0739052 0.0494089 6.24501e-17)
(-0.0755317 0.0468846 6.24501e-17)
(-0.0770721 0.0443068 6.24501e-17)
(-0.0785246 0.0416785 6.24501e-17)
(-0.0798874 0.0390026 6.93889e-17)
(-0.0811592 0.0362822 6.93889e-17)
(-0.0823383 0.0335205 6.93889e-17)
(-0.0834234 0.0307204 6.93889e-17)
(-0.0844134 0.0278854 6.93889e-17)
(-0.085307 0.0250185 6.93889e-17)
(-0.0861033 0.022123 6.93889e-17)
(-0.0868014 0.0192023 6.93889e-17)
(-0.0874004 0.0162597 6.93889e-17)
(-0.0878997 0.0132986 6.24501e-17)
(-0.0882987 0.0103223 6.24501e-17)
(-0.0885969 0.00733416 6.24501e-17)
(-0.0887941 0.00433769 6.24501e-17)
(-0.08889 0.00133627 6.24501e-17)
(-0.0888844 -0.00166667 6.24501e-17)
(-0.0887774 -0.00466771 6.93889e-17)
(-0.0885691 -0.00766343 6.93889e-17)
(-0.0882597 -0.0106504 6.93889e-17)
(-0.0878497 -0.0136252 6.24501e-17)
(-0.0873394 -0.0165845 6.24501e-17)
(-0.0867294 -0.0195248 6.24501e-17)
(-0.0860205 -0.0224429 6.24501e-17)
(-0.0852134 -0.0253354 6.24501e-17)
(-0.0843091 -0.0281989 6.24501e-17)
(-0.0833086 -0.0310303 6.24501e-17)
(-0.0822131 -0.0338263 6.24501e-17)
(-0.0810237 -0.0365837 5.55112e-17)
(-0.0797419 -0.0392993 5.55112e-17)
(-0.0783691 -0.0419701 5.55112e-17)
(-0.0769069 -0.044593 5.55112e-17)
(-0.075357 -0.047165 5.55112e-17)
(-0.073721 -0.0496832 5.55112e-17)
(-0.0720009 -0.0521448 5.55112e-17)
(-0.0701987 -0.0545468 5.55112e-17)
(-0.0683164 -0.0568866 4.85723e-17)
(-0.0663561 -0.0591614 4.85723e-17)
(-0.0643201 -0.0613688 4.85723e-17)
(-0.0622108 -0.0635061 4.85723e-17)
(-0.0600304 -0.065571 4.85723e-17)
(-0.0577816 -0.0675611 4.85723e-17)
(-0.0554668 -0.0694741 4.85723e-17)
(-0.0530887 -0.0713078 4.85723e-17)
(-0.05065 -0.0730601 3.46945e-17)
(-0.0481536 -0.0747291 3.46945e-17)
(-0.0456022 -0.0763128 3.46945e-17)
(-0.0429988 -0.0778095 2.77556e-17)
(-0.0403463 -0.0792173 2.77556e-17)
(-0.0376478 -0.0805348 2.77556e-17)
(-0.0349063 -0.0817604 2.77556e-17)
(-0.032125 -0.0828926 2.77556e-17)
(-0.0293071 -0.0839304 2.77556e-17)
(-0.0264557 -0.0848723 2.08167e-17)
(-0.0235741 -0.0857174 2.08167e-17)
(-0.0206656 -0.0864647 2.08167e-17)
(-0.0177336 -0.0871133 2.08167e-17)
(-0.0147813 -0.0876626 2.08167e-17)
(-0.0118121 -0.0881118 2.08167e-17)
(-0.00882947 -0.0884605 2.08167e-17)
(-0.00583676 -0.0887082 2.08167e-17)
(-0.00283739 -0.0888547 2.08167e-17)
(0.000165223 -0.0888999 6.93889e-18)
(0.00316764 -0.0888435 6.93889e-18)
(0.00616645 -0.0886859 6.93889e-18)
(0.00915822 -0.088427 6.93889e-18)
(0.0121395 -0.0880673 6.93889e-18)
(0.015107 -0.087607 0)
(0.0180572 -0.0870468 0)
(0.0209869 -0.0863873 0)
(0.0238926 -0.0856292 0)
(0.026771 -0.0847734 0)
(0.0296189 -0.0838208 0)
(0.0324329 -0.0827727 -6.93889e-18)
(0.03521 -0.0816301 -6.93889e-18)
(0.0379469 -0.0803943 -6.93889e-18)
(0.0406405 -0.0790668 -6.93889e-18)
(0.0432877 -0.0776491 -6.93889e-18)
(0.0458856 -0.0761428 -6.93889e-18)
(0.0484311 -0.0745496 -6.93889e-18)
(0.0509213 -0.0728714 -6.93889e-18)
(0.0533534 -0.07111 -6.93889e-18)
(0.0557246 -0.0692674 -6.93889e-18)
(0.0580323 -0.0673459 -6.93889e-18)
(0.0602737 -0.0653474 -1.38778e-17)
(0.0624464 -0.0632745 -1.38778e-17)
(0.0645478 -0.0611293 -1.38778e-17)
(0.0665756 -0.0589144 -1.38778e-17)
(0.0685274 -0.0566322 -1.38778e-17)
(0.070401 -0.0542855 -1.38778e-17)
(0.0721943 -0.0518768 -6.93889e-18)
(0.0739052 -0.0494089 -6.93889e-18)
(0.0755317 -0.0468846 -6.93889e-18)
(0.0770721 -0.0443068 -6.93889e-18)
(0.0785246 -0.0416785 -6.93889e-18)
(0.0798874 -0.0390026 -1.38778e-17)
(0.0811592 -0.0362822 -1.38778e-17)
(0.0823383 -0.0335205 -1.38778e-17)
(0.0834234 -0.0307204 -1.38778e-17)
(0.0844134 -0.0278854 -1.38778e-17)
(0.085307 -0.0250185 -1.38778e-17)
(0.0861033 -0.022123 -1.38778e-17)
(0.0868014 -0.0192023 -1.38778e-17)
(0.0874004 -0.0162597 -1.38778e-17)
(0.0878997 -0.0132986 -6.93889e-18)
(0.0882987 -0.0103223 -6.93889e-18)
(0.0885969 -0.00733416 -6.93889e-18)
(0.0887941 -0.00433769 -6.93889e-18)
(0.08889 -0.00133627 -6.93889e-18)
(0.0888844 0.00166667 -6.93889e-18)
(0.0887774 0.00466771 -1.38778e-17)
(0.0885691 0.00766343 -1.38778e-17)
(0.0882597 0.0106504 -1.38778e-17)
(0.0878497 0.0136252 -6.93889e-18)
(0.0873394 0.0165845 -6.93889e-18)
(0.0867294 0.0195248 -6.93889e-18)
(0.0860205 0.0224429 -6.93889e-18)
(0.0852134 0.0253354 -6.93889e-18)
(0.0843091 0.0281989 -6.93889e-18)
(0.0833086 0.0310303 -6.93889e-18)
(0.0822131 0.0338263 -6.93889e-18)
(0.0810237 0.0365837 0)
(0.0797419 0.0392993 0)
(0.0783691 0.0419701 0)
(0.0769069 0.044593 0)
(0.075357 0.047165 0)
(0.073721 0.0496832 0)
(0.0720009 0.0521448 0)
(0.0701987 0.0545468 0)
(0.0683164 0.0568866 6.93889e-18)
(0.0663561 0.0591614 6.93889e-18)
(0.0643201 0.0613688 6.93889e-18)
(0.0622108 0.0635061 6.93889e-18)
(0.0600304 0.065571 6.93889e-18)
(0.0577816 0.0675611 6.93889e-18)
(0.0554668 0.0694741 6.93889e-18)
(0.0530887 0.0713078 6.93889e-18)
(0.05065 0.0730601 2.08167e-17)
(0.0481536 0.0747291 2.08167e-17)
(0.0456022 0.0763128 2.08167e-17)
(0.0429988 0.0778095 2.77556e-17)
(0.0403463 0.0792173 2.77556e-17)
(0.0376478 0.0805348 2.77556e-17)
(0.0349063 0.0817604 2.77556e-17)
(0.032125 0.0828926 2.77556e-17)
(0.0293071 0.0839304 2.77556e-17)
(0.0264557 0.0848723 3.46945e-17)
(0.0235741 0.0857174 3.46945e-17)
(0.0206656 0.0864647 3.46945e-17)
(0.0177336 0.0871133 3.46945e-17)
(0.0147813 0.0876626 3.46945e-17)
(0.0118121 0.0881118 3.46945e-17)
(0.00882947 0.0884605 3.46945e-17)
(0.00583676 0.0887082 3.46945e-17)
(0.00283739 0.0888547 3.46945e-17)
(-0.000165223 0.0888999 4.85723e-17)
(-0.00316764 0.0888435 4.85723e-17)
(-0.00616645 0.0886859 4.85723e-17)
(-0.00915822 0.088427 4.85723e-17)
(-0.0121395 0.0880673 4.85723e-17)
(-0.015107 0.087607 5.55112e-17)
(-0.0180572 0.0870468 5.55112e-17)
(-0.0209869 0.0863873 5.55112e-17)
(-0.0238926 0.0856292 5.55112e-17)
(-0.026771 0.0847734 5.55112e-17)
(-0.0296189 0.0838208 5.55112e-17)
(-0.0324329 0.0827727 6.24501e-17)
(-0.03521 0.0816301 6.24501e-17)
(-0.0379469 0.0803943 6.24501e-17)
(-0.0406405 0.0790668 6.24501e-17)
)


// edges:

367
(
(0 1)
(2 0)
(3 2)
(1 4)
(4 5)
(5 6)
(6 7)
(7 8)
(8 9)
(9 10)
(10 11)
(11 12)
(12 13)
(13 14)
(14 15)
(15 16)
(16 17)
(17 18)
(18 19)
(19 20)
(20 21)
(21 22)
(22 23)
(23 24)
(24 25)
(25 26)
(26 27)
(27 28)
(28 29)
(29 30)
(30 31)
(31 32)
(32 33)
(33 34)
(34 35)
(35 36)
(36 37)
(37 38)
(38 39)
(39 40)
(40 41)
(41 42)
(42 43)
(43 44)
(44 45)
(45 46)
(46 47)
(47 48)
(48 49)
(49 50)
(50 51)
(51 52)
(52 53)
(53 54)
(54 55)
(55 56)
(56 57)
(57 58)
(58 59)
(59 60)
(60 61)
(61 62)
(62 63)
(63 64)
(64 65)
(65 66)
(66 67)
(67 68)
(68 69)
(69 70)
(70 71)
(71 72)
(72 73)
(73 74)
(74 75)
(75 76)
(76 77)
(77 78)
(78 79)
(79 80)
(80 81)
(81 82)
(82 83)
(83 84)
(84 85)
(85 86)
(86 87)
(87 88)
(88 89)
(89 90)
(90 91)
(91 92)
(92 93)
(93 94)
(94 95)
(95 96)
(96 97)
(97 98)
(98 99)
(99 100)
(100 101)
(101 102)
(102 103)
(103 104)
(104 105)
(105 106)
(106 107)
(107 108)
(108 109)
(109 110)
(110 111)
(111 112)
(112 113)
(113 114)
(114 115)
(115 116)
(116 117)
(117 118)
(118 119)
(119 120)
(120 121)
(121 122)
(122 123)
(123 124)
(124 125)
(125 126)
(126 127)
(127 128)
(128 129)
(129 130)
(130 131)
(131 132)
(132 133)
(133 134)
(134 135)
(135 136)
(136 137)
(137 138)
(138 139)
(139 140)
(140 141)
(141 142)
(142 143)
(143 144)
(144 145)
(145 146)
(146 147)
(147 148)
(148 149)
(149 150)
(150 151)
(151 152)
(152 153)
(153 154)
(154 155)
(155 156)
(156 157)
(157 158)
(158 159)
(159 160)
(160 161)
(161 162)
(162 163)
(163 164)
(164 165)
(165 166)
(166 167)
(167 168)
(168 169)
(169 170)
(170 171)
(171 172)
(172 173)
(173 174)
(174 175)
(175 176)
(176 177)
(177 178)
(178 179)
(179 180)
(180 3)
(181 182)
(183 181)
(184 183)
(185 184)
(186 185)
(187 186)
(188 187)
(189 188)
(190 189)
(191 190)
(192 191)
(193 192)
(194 193)
(195 194)
(196 195)
(197 196)
(198 197)
(199 198)
(200 199)
(201 200)
(202 201)
(203 202)
(204 203)
(205 204)
(206 205)
(207 206)
(208 207)
(209 208)
(210 209)
(211 210)
(212 211)
(213 212)
(214 213)
(215 214)
(216 215)
(217 216)
(218 217)
(219 218)
(220 219)
(221 220)
(222 221)
(223 222)
(224 223)
(225 224)
(226 225)
(227 226)
(228 227)
(229 228)
(230 229)
(231 230)
(232 231)
(233 232)
(234 233)
(235 234)
(236 235)
(237 236)
(238 237)
(239 238)
(240 239)
(241 240)
(242 241)
(243 242)
(244 243)
(245 244)
(246 245)
(247 246)
(248 247)
(249 248)
(250 249)
(251 250)
(252 251)
(253 252)
(254 253)
(255 254)
(256 255)
(257 256)
(258 257)
(259 258)
(260 259)
(261 260)
(262 261)
(263 262)
(264 263)
(265 264)
(266 265)
(267 266)
(268 267)
(269 268)
(270 269)
(271 270)
(272 271)
(273 272)
(274 273)
(275 274)
(276 275)
(277 276)
(278 277)
(279 278)
(280 279)
(281 280)
(282 281)
(283 282)
(284 283)
(285 284)
(286 285)
(287 286)
(288 287)
(289 288)
(290 289)
(291 290)
(292 291)
(293 292)
(294 293)
(295 294)
(296 295)
(297 296)
(298 297)
(299 298)
(300 299)
(301 300)
(302 301)
(303 302)
(304 303)
(305 304)
(306 305)
(307 306)
(308 307)
(309 308)
(310 309)
(311 310)
(312 311)
(313 312)
(314 313)
(315 314)
(316 315)
(317 316)
(318 317)
(319 318)
(320 319)
(321 320)
(322 321)
(323 322)
(324 323)
(325 324)
(326 325)
(327 326)
(328 327)
(329 328)
(330 329)
(331 330)
(332 331)
(333 332)
(334 333)
(335 334)
(336 335)
(337 336)
(338 337)
(339 338)
(340 339)
(341 340)
(342 341)
(343 342)
(344 343)
(345 344)
(346 345)
(347 346)
(348 347)
(349 348)
(350 349)
(351 350)
(352 351)
(353 352)
(354 353)
(355 354)
(356 355)
(357 356)
(358 357)
(359 358)
(360 359)
(361 360)
(362 361)
(363 362)
(364 363)
(365 364)
(366 365)
(182 366)
)

// * * * * * * * * * * * * * * * * * * * * * * * * * * * * * * * * * * * * * //


// ************************************************************************* //
